<?xml version="1.0" encoding="UTF-8"?>

<!-- generated on 2026-02-08T13:53:24.243482+05:30 by Eclipse SUMO netconvert 1.25.0
<netconvertConfiguration xmlns:xsi="http://www.w3.org/2001/XMLSchema-instance" xsi:noNamespaceSchemaLocation="http://sumo.dlr.de/xsd/netconvertConfiguration.xsd">

    <input>
        <node-files value="E:\github_projects\trafficRL\traffic_rl\sumo\grid_network.nod.xml"/>
        <edge-files value="E:\github_projects\trafficRL\traffic_rl\sumo\grid_network.edg.xml"/>
    </input>

    <output>
        <output-file value="E:\github_projects\trafficRL\traffic_rl\sumo\grid_network.net.xml"/>
    </output>

    <building_defaults>
        <default.lanewidth value="3.2"/>
        <default.junctions.radius value="4"/>
    </building_defaults>

    <tls_building>
        <tls.default-type value="static"/>
    </tls_building>

    <junctions>
        <no-turnarounds value="true"/>
        <junctions.corner-detail value="5"/>
        <junctions.limit-turn-speed value="5.5"/>
    </junctions>

</netconvertConfiguration>
-->

<net version="1.20" junctionCornerDetail="5" limitTurnSpeed="5.50" xmlns:xsi="http://www.w3.org/2001/XMLSchema-instance" xsi:noNamespaceSchemaLocation="http://sumo.dlr.de/xsd/net_file.xsd">

    <location netOffset="500.00,500.00" convBoundary="0.00,0.00,2000.00,2000.00" origBoundary="-500.00,-500.00,1500.00,1500.00" projParameter="!"/>

    <edge id=":I_0_0_0" function="internal">
        <lane id=":I_0_0_0_0" index="0" speed="6.51" length="9.03" width="3.20" shape="498.40,507.20 498.05,504.75 497.00,503.00 495.25,501.95 492.80,501.60"/>
    </edge>
    <edge id=":I_0_0_1" function="internal">
        <lane id=":I_0_0_1_0" index="0" speed="13.89" length="14.40" width="3.20" shape="498.40,507.20 498.40,492.80"/>
    </edge>
    <edge id=":I_0_0_2" function="internal">
        <lane id=":I_0_0_2_0" index="0" speed="8.00" length="4.07" width="3.20" shape="498.40,507.20 498.95,503.35 499.04,503.20"/>
    </edge>
    <edge id=":I_0_0_12" function="internal">
        <lane id=":I_0_0_12_0" index="0" speed="8.00" length="10.13" width="3.20" shape="499.04,503.20 500.60,500.60 503.35,498.95 507.20,498.40"/>
    </edge>
    <edge id=":I_0_0_3" function="internal">
        <lane id=":I_0_0_3_0" index="0" speed="6.51" length="9.03" width="3.20" shape="507.20,501.60 504.75,501.95 503.00,503.00 501.95,504.75 501.60,507.20"/>
    </edge>
    <edge id=":I_0_0_4" function="internal">
        <lane id=":I_0_0_4_0" index="0" speed="13.89" length="14.40" width="3.20" shape="507.20,501.60 492.80,501.60"/>
    </edge>
    <edge id=":I_0_0_5" function="internal">
        <lane id=":I_0_0_5_0" index="0" speed="8.00" length="4.07" width="3.20" shape="507.20,501.60 503.35,501.05 503.20,500.96"/>
    </edge>
    <edge id=":I_0_0_13" function="internal">
        <lane id=":I_0_0_13_0" index="0" speed="8.00" length="10.13" width="3.20" shape="503.20,500.96 500.60,499.40 498.95,496.65 498.40,492.80"/>
    </edge>
    <edge id=":I_0_0_6" function="internal">
        <lane id=":I_0_0_6_0" index="0" speed="6.51" length="9.03" width="3.20" shape="501.60,492.80 501.95,495.25 503.00,497.00 504.75,498.05 507.20,498.40"/>
    </edge>
    <edge id=":I_0_0_7" function="internal">
        <lane id=":I_0_0_7_0" index="0" speed="13.89" length="14.40" width="3.20" shape="501.60,492.80 501.60,507.20"/>
    </edge>
    <edge id=":I_0_0_8" function="internal">
        <lane id=":I_0_0_8_0" index="0" speed="8.00" length="4.07" width="3.20" shape="501.60,492.80 501.05,496.65 500.96,496.80"/>
    </edge>
    <edge id=":I_0_0_14" function="internal">
        <lane id=":I_0_0_14_0" index="0" speed="8.00" length="10.13" width="3.20" shape="500.96,496.80 499.40,499.40 496.65,501.05 492.80,501.60"/>
    </edge>
    <edge id=":I_0_0_9" function="internal">
        <lane id=":I_0_0_9_0" index="0" speed="6.51" length="9.03" width="3.20" shape="492.80,498.40 495.25,498.05 497.00,497.00 498.05,495.25 498.40,492.80"/>
    </edge>
    <edge id=":I_0_0_10" function="internal">
        <lane id=":I_0_0_10_0" index="0" speed="13.89" length="14.40" width="3.20" shape="492.80,498.40 507.20,498.40"/>
    </edge>
    <edge id=":I_0_0_11" function="internal">
        <lane id=":I_0_0_11_0" index="0" speed="8.00" length="4.07" width="3.20" shape="492.80,498.40 496.65,498.95 496.80,499.04"/>
    </edge>
    <edge id=":I_0_0_15" function="internal">
        <lane id=":I_0_0_15_0" index="0" speed="8.00" length="10.13" width="3.20" shape="496.80,499.04 499.40,500.60 501.05,503.35 501.60,507.20"/>
    </edge>
    <edge id=":I_0_1_0" function="internal">
        <lane id=":I_0_1_0_0" index="0" speed="6.51" length="9.03" width="3.20" shape="998.40,507.20 998.05,504.75 997.00,503.00 995.25,501.95 992.80,501.60"/>
    </edge>
    <edge id=":I_0_1_1" function="internal">
        <lane id=":I_0_1_1_0" index="0" speed="13.89" length="14.40" width="3.20" shape="998.40,507.20 998.40,492.80"/>
    </edge>
    <edge id=":I_0_1_2" function="internal">
        <lane id=":I_0_1_2_0" index="0" speed="8.00" length="4.07" width="3.20" shape="998.40,507.20 998.95,503.35 999.04,503.20"/>
    </edge>
    <edge id=":I_0_1_12" function="internal">
        <lane id=":I_0_1_12_0" index="0" speed="8.00" length="10.13" width="3.20" shape="999.04,503.20 1000.60,500.60 1003.35,498.95 1007.20,498.40"/>
    </edge>
    <edge id=":I_0_1_3" function="internal">
        <lane id=":I_0_1_3_0" index="0" speed="6.51" length="9.03" width="3.20" shape="1007.20,501.60 1004.75,501.95 1003.00,503.00 1001.95,504.75 1001.60,507.20"/>
    </edge>
    <edge id=":I_0_1_4" function="internal">
        <lane id=":I_0_1_4_0" index="0" speed="13.89" length="14.40" width="3.20" shape="1007.20,501.60 992.80,501.60"/>
    </edge>
    <edge id=":I_0_1_5" function="internal">
        <lane id=":I_0_1_5_0" index="0" speed="8.00" length="4.07" width="3.20" shape="1007.20,501.60 1003.35,501.05 1003.20,500.96"/>
    </edge>
    <edge id=":I_0_1_13" function="internal">
        <lane id=":I_0_1_13_0" index="0" speed="8.00" length="10.13" width="3.20" shape="1003.20,500.96 1000.60,499.40 998.95,496.65 998.40,492.80"/>
    </edge>
    <edge id=":I_0_1_6" function="internal">
        <lane id=":I_0_1_6_0" index="0" speed="6.51" length="9.03" width="3.20" shape="1001.60,492.80 1001.95,495.25 1003.00,497.00 1004.75,498.05 1007.20,498.40"/>
    </edge>
    <edge id=":I_0_1_7" function="internal">
        <lane id=":I_0_1_7_0" index="0" speed="13.89" length="14.40" width="3.20" shape="1001.60,492.80 1001.60,507.20"/>
    </edge>
    <edge id=":I_0_1_8" function="internal">
        <lane id=":I_0_1_8_0" index="0" speed="8.00" length="4.07" width="3.20" shape="1001.60,492.80 1001.05,496.65 1000.96,496.80"/>
    </edge>
    <edge id=":I_0_1_14" function="internal">
        <lane id=":I_0_1_14_0" index="0" speed="8.00" length="10.13" width="3.20" shape="1000.96,496.80 999.40,499.40 996.65,501.05 992.80,501.60"/>
    </edge>
    <edge id=":I_0_1_9" function="internal">
        <lane id=":I_0_1_9_0" index="0" speed="6.51" length="9.03" width="3.20" shape="992.80,498.40 995.25,498.05 997.00,497.00 998.05,495.25 998.40,492.80"/>
    </edge>
    <edge id=":I_0_1_10" function="internal">
        <lane id=":I_0_1_10_0" index="0" speed="13.89" length="14.40" width="3.20" shape="992.80,498.40 1007.20,498.40"/>
    </edge>
    <edge id=":I_0_1_11" function="internal">
        <lane id=":I_0_1_11_0" index="0" speed="8.00" length="4.07" width="3.20" shape="992.80,498.40 996.65,498.95 996.80,499.04"/>
    </edge>
    <edge id=":I_0_1_15" function="internal">
        <lane id=":I_0_1_15_0" index="0" speed="8.00" length="10.13" width="3.20" shape="996.80,499.04 999.40,500.60 1001.05,503.35 1001.60,507.20"/>
    </edge>
    <edge id=":I_0_2_0" function="internal">
        <lane id=":I_0_2_0_0" index="0" speed="6.51" length="9.03" width="3.20" shape="1498.40,507.20 1498.05,504.75 1497.00,503.00 1495.25,501.95 1492.80,501.60"/>
    </edge>
    <edge id=":I_0_2_1" function="internal">
        <lane id=":I_0_2_1_0" index="0" speed="13.89" length="14.40" width="3.20" shape="1498.40,507.20 1498.40,492.80"/>
    </edge>
    <edge id=":I_0_2_2" function="internal">
        <lane id=":I_0_2_2_0" index="0" speed="8.00" length="4.07" width="3.20" shape="1498.40,507.20 1498.95,503.35 1499.04,503.20"/>
    </edge>
    <edge id=":I_0_2_12" function="internal">
        <lane id=":I_0_2_12_0" index="0" speed="8.00" length="10.13" width="3.20" shape="1499.04,503.20 1500.60,500.60 1503.35,498.95 1507.20,498.40"/>
    </edge>
    <edge id=":I_0_2_3" function="internal">
        <lane id=":I_0_2_3_0" index="0" speed="6.51" length="9.03" width="3.20" shape="1507.20,501.60 1504.75,501.95 1503.00,503.00 1501.95,504.75 1501.60,507.20"/>
    </edge>
    <edge id=":I_0_2_4" function="internal">
        <lane id=":I_0_2_4_0" index="0" speed="13.89" length="14.40" width="3.20" shape="1507.20,501.60 1492.80,501.60"/>
    </edge>
    <edge id=":I_0_2_5" function="internal">
        <lane id=":I_0_2_5_0" index="0" speed="8.00" length="4.07" width="3.20" shape="1507.20,501.60 1503.35,501.05 1503.20,500.96"/>
    </edge>
    <edge id=":I_0_2_13" function="internal">
        <lane id=":I_0_2_13_0" index="0" speed="8.00" length="10.13" width="3.20" shape="1503.20,500.96 1500.60,499.40 1498.95,496.65 1498.40,492.80"/>
    </edge>
    <edge id=":I_0_2_6" function="internal">
        <lane id=":I_0_2_6_0" index="0" speed="6.51" length="9.03" width="3.20" shape="1501.60,492.80 1501.95,495.25 1503.00,497.00 1504.75,498.05 1507.20,498.40"/>
    </edge>
    <edge id=":I_0_2_7" function="internal">
        <lane id=":I_0_2_7_0" index="0" speed="13.89" length="14.40" width="3.20" shape="1501.60,492.80 1501.60,507.20"/>
    </edge>
    <edge id=":I_0_2_8" function="internal">
        <lane id=":I_0_2_8_0" index="0" speed="8.00" length="4.07" width="3.20" shape="1501.60,492.80 1501.05,496.65 1500.96,496.80"/>
    </edge>
    <edge id=":I_0_2_14" function="internal">
        <lane id=":I_0_2_14_0" index="0" speed="8.00" length="10.13" width="3.20" shape="1500.96,496.80 1499.40,499.40 1496.65,501.05 1492.80,501.60"/>
    </edge>
    <edge id=":I_0_2_9" function="internal">
        <lane id=":I_0_2_9_0" index="0" speed="6.51" length="9.03" width="3.20" shape="1492.80,498.40 1495.25,498.05 1497.00,497.00 1498.05,495.25 1498.40,492.80"/>
    </edge>
    <edge id=":I_0_2_10" function="internal">
        <lane id=":I_0_2_10_0" index="0" speed="13.89" length="14.40" width="3.20" shape="1492.80,498.40 1507.20,498.40"/>
    </edge>
    <edge id=":I_0_2_11" function="internal">
        <lane id=":I_0_2_11_0" index="0" speed="8.00" length="4.07" width="3.20" shape="1492.80,498.40 1496.65,498.95 1496.80,499.04"/>
    </edge>
    <edge id=":I_0_2_15" function="internal">
        <lane id=":I_0_2_15_0" index="0" speed="8.00" length="10.13" width="3.20" shape="1496.80,499.04 1499.40,500.60 1501.05,503.35 1501.60,507.20"/>
    </edge>
    <edge id=":I_1_0_0" function="internal">
        <lane id=":I_1_0_0_0" index="0" speed="6.51" length="9.03" width="3.20" shape="498.40,1007.20 498.05,1004.75 497.00,1003.00 495.25,1001.95 492.80,1001.60"/>
    </edge>
    <edge id=":I_1_0_1" function="internal">
        <lane id=":I_1_0_1_0" index="0" speed="13.89" length="14.40" width="3.20" shape="498.40,1007.20 498.40,992.80"/>
    </edge>
    <edge id=":I_1_0_2" function="internal">
        <lane id=":I_1_0_2_0" index="0" speed="8.00" length="4.07" width="3.20" shape="498.40,1007.20 498.95,1003.35 499.04,1003.20"/>
    </edge>
    <edge id=":I_1_0_12" function="internal">
        <lane id=":I_1_0_12_0" index="0" speed="8.00" length="10.13" width="3.20" shape="499.04,1003.20 500.60,1000.60 503.35,998.95 507.20,998.40"/>
    </edge>
    <edge id=":I_1_0_3" function="internal">
        <lane id=":I_1_0_3_0" index="0" speed="6.51" length="9.03" width="3.20" shape="507.20,1001.60 504.75,1001.95 503.00,1003.00 501.95,1004.75 501.60,1007.20"/>
    </edge>
    <edge id=":I_1_0_4" function="internal">
        <lane id=":I_1_0_4_0" index="0" speed="13.89" length="14.40" width="3.20" shape="507.20,1001.60 492.80,1001.60"/>
    </edge>
    <edge id=":I_1_0_5" function="internal">
        <lane id=":I_1_0_5_0" index="0" speed="8.00" length="4.07" width="3.20" shape="507.20,1001.60 503.35,1001.05 503.20,1000.96"/>
    </edge>
    <edge id=":I_1_0_13" function="internal">
        <lane id=":I_1_0_13_0" index="0" speed="8.00" length="10.13" width="3.20" shape="503.20,1000.96 500.60,999.40 498.95,996.65 498.40,992.80"/>
    </edge>
    <edge id=":I_1_0_6" function="internal">
        <lane id=":I_1_0_6_0" index="0" speed="6.51" length="9.03" width="3.20" shape="501.60,992.80 501.95,995.25 503.00,997.00 504.75,998.05 507.20,998.40"/>
    </edge>
    <edge id=":I_1_0_7" function="internal">
        <lane id=":I_1_0_7_0" index="0" speed="13.89" length="14.40" width="3.20" shape="501.60,992.80 501.60,1007.20"/>
    </edge>
    <edge id=":I_1_0_8" function="internal">
        <lane id=":I_1_0_8_0" index="0" speed="8.00" length="4.07" width="3.20" shape="501.60,992.80 501.05,996.65 500.96,996.80"/>
    </edge>
    <edge id=":I_1_0_14" function="internal">
        <lane id=":I_1_0_14_0" index="0" speed="8.00" length="10.13" width="3.20" shape="500.96,996.80 499.40,999.40 496.65,1001.05 492.80,1001.60"/>
    </edge>
    <edge id=":I_1_0_9" function="internal">
        <lane id=":I_1_0_9_0" index="0" speed="6.51" length="9.03" width="3.20" shape="492.80,998.40 495.25,998.05 497.00,997.00 498.05,995.25 498.40,992.80"/>
    </edge>
    <edge id=":I_1_0_10" function="internal">
        <lane id=":I_1_0_10_0" index="0" speed="13.89" length="14.40" width="3.20" shape="492.80,998.40 507.20,998.40"/>
    </edge>
    <edge id=":I_1_0_11" function="internal">
        <lane id=":I_1_0_11_0" index="0" speed="8.00" length="4.07" width="3.20" shape="492.80,998.40 496.65,998.95 496.80,999.04"/>
    </edge>
    <edge id=":I_1_0_15" function="internal">
        <lane id=":I_1_0_15_0" index="0" speed="8.00" length="10.13" width="3.20" shape="496.80,999.04 499.40,1000.60 501.05,1003.35 501.60,1007.20"/>
    </edge>
    <edge id=":I_1_1_0" function="internal">
        <lane id=":I_1_1_0_0" index="0" speed="6.51" length="9.03" width="3.20" shape="998.40,1007.20 998.05,1004.75 997.00,1003.00 995.25,1001.95 992.80,1001.60"/>
    </edge>
    <edge id=":I_1_1_1" function="internal">
        <lane id=":I_1_1_1_0" index="0" speed="13.89" length="14.40" width="3.20" shape="998.40,1007.20 998.40,992.80"/>
    </edge>
    <edge id=":I_1_1_2" function="internal">
        <lane id=":I_1_1_2_0" index="0" speed="8.00" length="4.07" width="3.20" shape="998.40,1007.20 998.95,1003.35 999.04,1003.20"/>
    </edge>
    <edge id=":I_1_1_12" function="internal">
        <lane id=":I_1_1_12_0" index="0" speed="8.00" length="10.13" width="3.20" shape="999.04,1003.20 1000.60,1000.60 1003.35,998.95 1007.20,998.40"/>
    </edge>
    <edge id=":I_1_1_3" function="internal">
        <lane id=":I_1_1_3_0" index="0" speed="6.51" length="9.03" width="3.20" shape="1007.20,1001.60 1004.75,1001.95 1003.00,1003.00 1001.95,1004.75 1001.60,1007.20"/>
    </edge>
    <edge id=":I_1_1_4" function="internal">
        <lane id=":I_1_1_4_0" index="0" speed="13.89" length="14.40" width="3.20" shape="1007.20,1001.60 992.80,1001.60"/>
    </edge>
    <edge id=":I_1_1_5" function="internal">
        <lane id=":I_1_1_5_0" index="0" speed="8.00" length="4.07" width="3.20" shape="1007.20,1001.60 1003.35,1001.05 1003.20,1000.96"/>
    </edge>
    <edge id=":I_1_1_13" function="internal">
        <lane id=":I_1_1_13_0" index="0" speed="8.00" length="10.13" width="3.20" shape="1003.20,1000.96 1000.60,999.40 998.95,996.65 998.40,992.80"/>
    </edge>
    <edge id=":I_1_1_6" function="internal">
        <lane id=":I_1_1_6_0" index="0" speed="6.51" length="9.03" width="3.20" shape="1001.60,992.80 1001.95,995.25 1003.00,997.00 1004.75,998.05 1007.20,998.40"/>
    </edge>
    <edge id=":I_1_1_7" function="internal">
        <lane id=":I_1_1_7_0" index="0" speed="13.89" length="14.40" width="3.20" shape="1001.60,992.80 1001.60,1007.20"/>
    </edge>
    <edge id=":I_1_1_8" function="internal">
        <lane id=":I_1_1_8_0" index="0" speed="8.00" length="4.07" width="3.20" shape="1001.60,992.80 1001.05,996.65 1000.96,996.80"/>
    </edge>
    <edge id=":I_1_1_14" function="internal">
        <lane id=":I_1_1_14_0" index="0" speed="8.00" length="10.13" width="3.20" shape="1000.96,996.80 999.40,999.40 996.65,1001.05 992.80,1001.60"/>
    </edge>
    <edge id=":I_1_1_9" function="internal">
        <lane id=":I_1_1_9_0" index="0" speed="6.51" length="9.03" width="3.20" shape="992.80,998.40 995.25,998.05 997.00,997.00 998.05,995.25 998.40,992.80"/>
    </edge>
    <edge id=":I_1_1_10" function="internal">
        <lane id=":I_1_1_10_0" index="0" speed="13.89" length="14.40" width="3.20" shape="992.80,998.40 1007.20,998.40"/>
    </edge>
    <edge id=":I_1_1_11" function="internal">
        <lane id=":I_1_1_11_0" index="0" speed="8.00" length="4.07" width="3.20" shape="992.80,998.40 996.65,998.95 996.80,999.04"/>
    </edge>
    <edge id=":I_1_1_15" function="internal">
        <lane id=":I_1_1_15_0" index="0" speed="8.00" length="10.13" width="3.20" shape="996.80,999.04 999.40,1000.60 1001.05,1003.35 1001.60,1007.20"/>
    </edge>
    <edge id=":I_1_2_0" function="internal">
        <lane id=":I_1_2_0_0" index="0" speed="6.51" length="9.03" width="3.20" shape="1498.40,1007.20 1498.05,1004.75 1497.00,1003.00 1495.25,1001.95 1492.80,1001.60"/>
    </edge>
    <edge id=":I_1_2_1" function="internal">
        <lane id=":I_1_2_1_0" index="0" speed="13.89" length="14.40" width="3.20" shape="1498.40,1007.20 1498.40,992.80"/>
    </edge>
    <edge id=":I_1_2_2" function="internal">
        <lane id=":I_1_2_2_0" index="0" speed="8.00" length="4.07" width="3.20" shape="1498.40,1007.20 1498.95,1003.35 1499.04,1003.20"/>
    </edge>
    <edge id=":I_1_2_12" function="internal">
        <lane id=":I_1_2_12_0" index="0" speed="8.00" length="10.13" width="3.20" shape="1499.04,1003.20 1500.60,1000.60 1503.35,998.95 1507.20,998.40"/>
    </edge>
    <edge id=":I_1_2_3" function="internal">
        <lane id=":I_1_2_3_0" index="0" speed="6.51" length="9.03" width="3.20" shape="1507.20,1001.60 1504.75,1001.95 1503.00,1003.00 1501.95,1004.75 1501.60,1007.20"/>
    </edge>
    <edge id=":I_1_2_4" function="internal">
        <lane id=":I_1_2_4_0" index="0" speed="13.89" length="14.40" width="3.20" shape="1507.20,1001.60 1492.80,1001.60"/>
    </edge>
    <edge id=":I_1_2_5" function="internal">
        <lane id=":I_1_2_5_0" index="0" speed="8.00" length="4.07" width="3.20" shape="1507.20,1001.60 1503.35,1001.05 1503.20,1000.96"/>
    </edge>
    <edge id=":I_1_2_13" function="internal">
        <lane id=":I_1_2_13_0" index="0" speed="8.00" length="10.13" width="3.20" shape="1503.20,1000.96 1500.60,999.40 1498.95,996.65 1498.40,992.80"/>
    </edge>
    <edge id=":I_1_2_6" function="internal">
        <lane id=":I_1_2_6_0" index="0" speed="6.51" length="9.03" width="3.20" shape="1501.60,992.80 1501.95,995.25 1503.00,997.00 1504.75,998.05 1507.20,998.40"/>
    </edge>
    <edge id=":I_1_2_7" function="internal">
        <lane id=":I_1_2_7_0" index="0" speed="13.89" length="14.40" width="3.20" shape="1501.60,992.80 1501.60,1007.20"/>
    </edge>
    <edge id=":I_1_2_8" function="internal">
        <lane id=":I_1_2_8_0" index="0" speed="8.00" length="4.07" width="3.20" shape="1501.60,992.80 1501.05,996.65 1500.96,996.80"/>
    </edge>
    <edge id=":I_1_2_14" function="internal">
        <lane id=":I_1_2_14_0" index="0" speed="8.00" length="10.13" width="3.20" shape="1500.96,996.80 1499.40,999.40 1496.65,1001.05 1492.80,1001.60"/>
    </edge>
    <edge id=":I_1_2_9" function="internal">
        <lane id=":I_1_2_9_0" index="0" speed="6.51" length="9.03" width="3.20" shape="1492.80,998.40 1495.25,998.05 1497.00,997.00 1498.05,995.25 1498.40,992.80"/>
    </edge>
    <edge id=":I_1_2_10" function="internal">
        <lane id=":I_1_2_10_0" index="0" speed="13.89" length="14.40" width="3.20" shape="1492.80,998.40 1507.20,998.40"/>
    </edge>
    <edge id=":I_1_2_11" function="internal">
        <lane id=":I_1_2_11_0" index="0" speed="8.00" length="4.07" width="3.20" shape="1492.80,998.40 1496.65,998.95 1496.80,999.04"/>
    </edge>
    <edge id=":I_1_2_15" function="internal">
        <lane id=":I_1_2_15_0" index="0" speed="8.00" length="10.13" width="3.20" shape="1496.80,999.04 1499.40,1000.60 1501.05,1003.35 1501.60,1007.20"/>
    </edge>
    <edge id=":I_2_0_0" function="internal">
        <lane id=":I_2_0_0_0" index="0" speed="6.51" length="9.03" width="3.20" shape="498.40,1507.20 498.05,1504.75 497.00,1503.00 495.25,1501.95 492.80,1501.60"/>
    </edge>
    <edge id=":I_2_0_1" function="internal">
        <lane id=":I_2_0_1_0" index="0" speed="13.89" length="14.40" width="3.20" shape="498.40,1507.20 498.40,1492.80"/>
    </edge>
    <edge id=":I_2_0_2" function="internal">
        <lane id=":I_2_0_2_0" index="0" speed="8.00" length="4.07" width="3.20" shape="498.40,1507.20 498.95,1503.35 499.04,1503.20"/>
    </edge>
    <edge id=":I_2_0_12" function="internal">
        <lane id=":I_2_0_12_0" index="0" speed="8.00" length="10.13" width="3.20" shape="499.04,1503.20 500.60,1500.60 503.35,1498.95 507.20,1498.40"/>
    </edge>
    <edge id=":I_2_0_3" function="internal">
        <lane id=":I_2_0_3_0" index="0" speed="6.51" length="9.03" width="3.20" shape="507.20,1501.60 504.75,1501.95 503.00,1503.00 501.95,1504.75 501.60,1507.20"/>
    </edge>
    <edge id=":I_2_0_4" function="internal">
        <lane id=":I_2_0_4_0" index="0" speed="13.89" length="14.40" width="3.20" shape="507.20,1501.60 492.80,1501.60"/>
    </edge>
    <edge id=":I_2_0_5" function="internal">
        <lane id=":I_2_0_5_0" index="0" speed="8.00" length="4.07" width="3.20" shape="507.20,1501.60 503.35,1501.05 503.20,1500.96"/>
    </edge>
    <edge id=":I_2_0_13" function="internal">
        <lane id=":I_2_0_13_0" index="0" speed="8.00" length="10.13" width="3.20" shape="503.20,1500.96 500.60,1499.40 498.95,1496.65 498.40,1492.80"/>
    </edge>
    <edge id=":I_2_0_6" function="internal">
        <lane id=":I_2_0_6_0" index="0" speed="6.51" length="9.03" width="3.20" shape="501.60,1492.80 501.95,1495.25 503.00,1497.00 504.75,1498.05 507.20,1498.40"/>
    </edge>
    <edge id=":I_2_0_7" function="internal">
        <lane id=":I_2_0_7_0" index="0" speed="13.89" length="14.40" width="3.20" shape="501.60,1492.80 501.60,1507.20"/>
    </edge>
    <edge id=":I_2_0_8" function="internal">
        <lane id=":I_2_0_8_0" index="0" speed="8.00" length="4.07" width="3.20" shape="501.60,1492.80 501.05,1496.65 500.96,1496.80"/>
    </edge>
    <edge id=":I_2_0_14" function="internal">
        <lane id=":I_2_0_14_0" index="0" speed="8.00" length="10.13" width="3.20" shape="500.96,1496.80 499.40,1499.40 496.65,1501.05 492.80,1501.60"/>
    </edge>
    <edge id=":I_2_0_9" function="internal">
        <lane id=":I_2_0_9_0" index="0" speed="6.51" length="9.03" width="3.20" shape="492.80,1498.40 495.25,1498.05 497.00,1497.00 498.05,1495.25 498.40,1492.80"/>
    </edge>
    <edge id=":I_2_0_10" function="internal">
        <lane id=":I_2_0_10_0" index="0" speed="13.89" length="14.40" width="3.20" shape="492.80,1498.40 507.20,1498.40"/>
    </edge>
    <edge id=":I_2_0_11" function="internal">
        <lane id=":I_2_0_11_0" index="0" speed="8.00" length="4.07" width="3.20" shape="492.80,1498.40 496.65,1498.95 496.80,1499.04"/>
    </edge>
    <edge id=":I_2_0_15" function="internal">
        <lane id=":I_2_0_15_0" index="0" speed="8.00" length="10.13" width="3.20" shape="496.80,1499.04 499.40,1500.60 501.05,1503.35 501.60,1507.20"/>
    </edge>
    <edge id=":I_2_1_0" function="internal">
        <lane id=":I_2_1_0_0" index="0" speed="6.51" length="9.03" width="3.20" shape="998.40,1507.20 998.05,1504.75 997.00,1503.00 995.25,1501.95 992.80,1501.60"/>
    </edge>
    <edge id=":I_2_1_1" function="internal">
        <lane id=":I_2_1_1_0" index="0" speed="13.89" length="14.40" width="3.20" shape="998.40,1507.20 998.40,1492.80"/>
    </edge>
    <edge id=":I_2_1_2" function="internal">
        <lane id=":I_2_1_2_0" index="0" speed="8.00" length="4.07" width="3.20" shape="998.40,1507.20 998.95,1503.35 999.04,1503.20"/>
    </edge>
    <edge id=":I_2_1_12" function="internal">
        <lane id=":I_2_1_12_0" index="0" speed="8.00" length="10.13" width="3.20" shape="999.04,1503.20 1000.60,1500.60 1003.35,1498.95 1007.20,1498.40"/>
    </edge>
    <edge id=":I_2_1_3" function="internal">
        <lane id=":I_2_1_3_0" index="0" speed="6.51" length="9.03" width="3.20" shape="1007.20,1501.60 1004.75,1501.95 1003.00,1503.00 1001.95,1504.75 1001.60,1507.20"/>
    </edge>
    <edge id=":I_2_1_4" function="internal">
        <lane id=":I_2_1_4_0" index="0" speed="13.89" length="14.40" width="3.20" shape="1007.20,1501.60 992.80,1501.60"/>
    </edge>
    <edge id=":I_2_1_5" function="internal">
        <lane id=":I_2_1_5_0" index="0" speed="8.00" length="4.07" width="3.20" shape="1007.20,1501.60 1003.35,1501.05 1003.20,1500.96"/>
    </edge>
    <edge id=":I_2_1_13" function="internal">
        <lane id=":I_2_1_13_0" index="0" speed="8.00" length="10.13" width="3.20" shape="1003.20,1500.96 1000.60,1499.40 998.95,1496.65 998.40,1492.80"/>
    </edge>
    <edge id=":I_2_1_6" function="internal">
        <lane id=":I_2_1_6_0" index="0" speed="6.51" length="9.03" width="3.20" shape="1001.60,1492.80 1001.95,1495.25 1003.00,1497.00 1004.75,1498.05 1007.20,1498.40"/>
    </edge>
    <edge id=":I_2_1_7" function="internal">
        <lane id=":I_2_1_7_0" index="0" speed="13.89" length="14.40" width="3.20" shape="1001.60,1492.80 1001.60,1507.20"/>
    </edge>
    <edge id=":I_2_1_8" function="internal">
        <lane id=":I_2_1_8_0" index="0" speed="8.00" length="4.07" width="3.20" shape="1001.60,1492.80 1001.05,1496.65 1000.96,1496.80"/>
    </edge>
    <edge id=":I_2_1_14" function="internal">
        <lane id=":I_2_1_14_0" index="0" speed="8.00" length="10.13" width="3.20" shape="1000.96,1496.80 999.40,1499.40 996.65,1501.05 992.80,1501.60"/>
    </edge>
    <edge id=":I_2_1_9" function="internal">
        <lane id=":I_2_1_9_0" index="0" speed="6.51" length="9.03" width="3.20" shape="992.80,1498.40 995.25,1498.05 997.00,1497.00 998.05,1495.25 998.40,1492.80"/>
    </edge>
    <edge id=":I_2_1_10" function="internal">
        <lane id=":I_2_1_10_0" index="0" speed="13.89" length="14.40" width="3.20" shape="992.80,1498.40 1007.20,1498.40"/>
    </edge>
    <edge id=":I_2_1_11" function="internal">
        <lane id=":I_2_1_11_0" index="0" speed="8.00" length="4.07" width="3.20" shape="992.80,1498.40 996.65,1498.95 996.80,1499.04"/>
    </edge>
    <edge id=":I_2_1_15" function="internal">
        <lane id=":I_2_1_15_0" index="0" speed="8.00" length="10.13" width="3.20" shape="996.80,1499.04 999.40,1500.60 1001.05,1503.35 1001.60,1507.20"/>
    </edge>
    <edge id=":I_2_2_0" function="internal">
        <lane id=":I_2_2_0_0" index="0" speed="6.51" length="9.03" width="3.20" shape="1498.40,1507.20 1498.05,1504.75 1497.00,1503.00 1495.25,1501.95 1492.80,1501.60"/>
    </edge>
    <edge id=":I_2_2_1" function="internal">
        <lane id=":I_2_2_1_0" index="0" speed="13.89" length="14.40" width="3.20" shape="1498.40,1507.20 1498.40,1492.80"/>
    </edge>
    <edge id=":I_2_2_2" function="internal">
        <lane id=":I_2_2_2_0" index="0" speed="8.00" length="4.07" width="3.20" shape="1498.40,1507.20 1498.95,1503.35 1499.04,1503.20"/>
    </edge>
    <edge id=":I_2_2_12" function="internal">
        <lane id=":I_2_2_12_0" index="0" speed="8.00" length="10.13" width="3.20" shape="1499.04,1503.20 1500.60,1500.60 1503.35,1498.95 1507.20,1498.40"/>
    </edge>
    <edge id=":I_2_2_3" function="internal">
        <lane id=":I_2_2_3_0" index="0" speed="6.51" length="9.03" width="3.20" shape="1507.20,1501.60 1504.75,1501.95 1503.00,1503.00 1501.95,1504.75 1501.60,1507.20"/>
    </edge>
    <edge id=":I_2_2_4" function="internal">
        <lane id=":I_2_2_4_0" index="0" speed="13.89" length="14.40" width="3.20" shape="1507.20,1501.60 1492.80,1501.60"/>
    </edge>
    <edge id=":I_2_2_5" function="internal">
        <lane id=":I_2_2_5_0" index="0" speed="8.00" length="4.07" width="3.20" shape="1507.20,1501.60 1503.35,1501.05 1503.20,1500.96"/>
    </edge>
    <edge id=":I_2_2_13" function="internal">
        <lane id=":I_2_2_13_0" index="0" speed="8.00" length="10.13" width="3.20" shape="1503.20,1500.96 1500.60,1499.40 1498.95,1496.65 1498.40,1492.80"/>
    </edge>
    <edge id=":I_2_2_6" function="internal">
        <lane id=":I_2_2_6_0" index="0" speed="6.51" length="9.03" width="3.20" shape="1501.60,1492.80 1501.95,1495.25 1503.00,1497.00 1504.75,1498.05 1507.20,1498.40"/>
    </edge>
    <edge id=":I_2_2_7" function="internal">
        <lane id=":I_2_2_7_0" index="0" speed="13.89" length="14.40" width="3.20" shape="1501.60,1492.80 1501.60,1507.20"/>
    </edge>
    <edge id=":I_2_2_8" function="internal">
        <lane id=":I_2_2_8_0" index="0" speed="8.00" length="4.07" width="3.20" shape="1501.60,1492.80 1501.05,1496.65 1500.96,1496.80"/>
    </edge>
    <edge id=":I_2_2_14" function="internal">
        <lane id=":I_2_2_14_0" index="0" speed="8.00" length="10.13" width="3.20" shape="1500.96,1496.80 1499.40,1499.40 1496.65,1501.05 1492.80,1501.60"/>
    </edge>
    <edge id=":I_2_2_9" function="internal">
        <lane id=":I_2_2_9_0" index="0" speed="6.51" length="9.03" width="3.20" shape="1492.80,1498.40 1495.25,1498.05 1497.00,1497.00 1498.05,1495.25 1498.40,1492.80"/>
    </edge>
    <edge id=":I_2_2_10" function="internal">
        <lane id=":I_2_2_10_0" index="0" speed="13.89" length="14.40" width="3.20" shape="1492.80,1498.40 1507.20,1498.40"/>
    </edge>
    <edge id=":I_2_2_11" function="internal">