<?xml version="1.0" encoding="UTF-8"?>
<edges xmlns:xsi="http://www.w3.org/2001/XMLSchema-instance" xsi:noNamespaceSchemaLocation="http://sumo.dlr.de/xsd/edges_file.xsd">
    <edge id="I_0_0_to_I_1_0" from="I_0_0" to="I_1_0" priority="2" numLanes="1" speed="13.89" />
    <edge id="I_0_0_to_I_0_1" from="I_0_0" to="I_0_1" priority="2" numLanes="1" speed="13.89" />
    <edge id="I_0_1_to_I_1_1" from="I_0_1" to="I_1_1" priority="2" numLanes="1" speed="13.89" />
    <edge id="I_0_1_to_I_0_0" from="I_0_1" to="I_0_0" priority="2" numLanes="1" speed="13.89" />
    <edge id="I_0_1_to_I_0_2" from="I_0_1" to="I_0_2" priority="2" numLanes="1" speed="13.89" />
    <edge id="I_0_2_to_I_1_2" from="I_0_2" to="I_1_2" priority="2" numLanes="1" speed="13.89" />
    <edge id="I_0_2_to_I_0_1" from="I_0_2" to="I_0_1" priority="2" numLanes="1" speed="13.89" />
    <edge id="I_1_0_to_I_0_0" from="I_1_0" to="I_0_0" priority="2" numLanes="1" speed="13.89" />
    <edge id="I_1_0_to_I_2_0" from="I_1_0" to="I_2_0" priority="2" numLanes="1" speed="13.89" />
    <edge id="I_1_0_to_I_1_1" from="I_1_0" to="I_1_1" priority="2" numLanes="1" speed="13.89" />
    <edge id="I_1_1_to_I_0_1" from="I_1_1" to="I_0_1" priority="2" numLanes="1" speed="13.89" />
    <edge id="I_1_1_to_I_2_1" from="I_1_1" to="I_2_1" priority="2" numLanes="1" speed="13.89" />
    <edge id="I_1_1_to_I_1_0" from="I_1_1" to="I_1_0" priority="2" numLanes="1" speed="13.89" />
    <edge id="I_1_1_to_I_1_2" from="I_1_1" to="I_1_2" priority="2" numLanes="1" speed="13.89" />
    <edge id="I_1_2_to_I_0_2" from="I_1_2" to="I_0_2" priority="2" numLanes="1" speed="13.89" />
    <edge id="I_1_2_to_I_2_2" from="I_1_2" to="I_2_2" priority="2" numLanes="1" speed="13.89" />
    <edge id="I_1_2_to_I_1_1" from="I_1_2" to="I_1_1" priority="2" numLanes="1" speed="13.89" />
    <edge id="I_2_0_to_I_1_0" from="I_2_0" to="I_1_0" priority="2" numLanes="1" speed="13.89" />
    <edge id="I_2_0_to_I_2_1" from="I_2_0" to="I_2_1" priority="2" numLanes="1" speed="13.89" />
    <edge id="I_2_1_to_I_1_1" from="I_2_1" to="I_1_1" priority="2" numLanes="1" speed="13.89" />
    <edge id="I_2_1_to_I_2_0" from="I_2_1" to="I_2_0" priority="2" numLanes="1" speed="13.89" />
    <edge id="I_2_1_to_I_2_2" from="I_2_1" to="I_2_2" priority="2" numLanes="1" speed="13.89" />
    <edge id="I_2_2_to_I_1_2" from="I_2_2" to="I_1_2" priority="2" numLanes="1" speed="13.89" />
    <edge id="I_2_2_to_I_2_1" from="I_2_2" to="I_2_1" priority="2" numLanes="1" speed="13.89" />
    <edge id="I_0_0_N_boundary_to_I_0_0" from="I_0_0_N_boundary" to="I_0_0" priority="2" numLanes="1" speed="13.89" />
    <edge id="I_0_0_to_I_0_0_N_boundary" from="I_0_0" to="I_0_0_N_boundary" priority="2" numLanes="1" speed="13.89" />
    <edge id="I_0_1_N_boundary_to_I_0_1" from="I_0_1_N_boundary" to="I_0_1" priority="2" numLanes="1" speed="13.89" />
    <edge id="I_0_1_to_I_0_1_N_boundary" from="I_0_1" to="I_0_1_N_boundary" priority="2" numLanes="1" speed="13.89" />
    <edge id="I_0_2_N_boundary_to_I_0_2" from="I_0_2_N_boundary" to="I_0_2" priority="2" numLanes="1" speed="13.89" />
    <edge id="I_0_2_to_I_0_2_N_boundary" from="I_0_2" to="I_0_2_N_boundary" priority="2" numLanes="1" speed="13.89" />
    <edge id="I_2_0_S_boundary_to_I_2_0" from="I_2_0_S_boundary" to="I_2_0" priority="2" numLanes="1" speed="13.89" />
    <edge id="I_2_0_to_I_2_0_S_boundary" from="I_2_0" to="I_2_0_S_boundary" priority="2" numLanes="1" speed="13.89" />
    <edge id="I_2_1_S_boundary_to_I_2_1" from="I_2_1_S_boundary" to="I_2_1" priority="2" numLanes="1" speed="13.89" />
    <edge id="I_2_1_to_I_2_1_S_boundary" from="I_2_1" to="I_2_1_S_boundary" priority="2" numLanes="1" speed="13.89" />
    <edge id="I_2_2_S_boundary_to_I_2_2" from="I_2_2_S_boundary" to="I_2_2" priority="2" numLanes="1" speed="13.89" />
    <edge id="I_2_2_to_I_2_2_S_boundary" from="I_2_2" to="I_2_2_S_boundary" priority="2" numLanes="1" speed="13.89" />
    <edge id="I_0_0_W_boundary_to_I_0_0" from="I_0_0_W_boundary" to="I_0_0" priority="2" numLanes="1" speed="13.89" />
    <edge id="I_0_0_to_I_0_0_W_boundary" from="I_0_0" to="I_0_0_W_boundary" priority="2" numLanes="1" speed="13.89" />
    <edge id="I_1_0_W_boundary_to_I_1_0" from="I_1_0_W_boundary" to="I_1_0" priority="2" numLanes="1" speed="13.89" />
    <edge id="I_1_0_to_I_1_0_W_boundary" from="I_1_0" to="I_1_0_W_boundary" priority="2" numLanes="1" speed="13.89" />
    <edge id="I_2_0_W_boundary_to_I_2_0" from="I_2_0_W_boundary" to="I_2_0" priority="2" numLanes="1" speed="13.89" />
    <edge id="I_2_0_to_I_2_0_W_boundary" from="I_2_0" to="I_2_0_W_boundary" priority="2" numLanes="1" speed="13.89" />
    <edge id="I_0_2_E_boundary_to_I_0_2" from="I_0_2_E_boundary" to="I_0_2" priority="2" numLanes="1" speed="13.89" />
    <edge id="I_0_2_to_I_0_2_E_boundary" from="I_0_2" to="I_0_2_E_boundary" priority="2" numLanes="1" speed="13.89" />
    <edge id="I_1_2_E_boundary_to_I_1_2" from="I_1_2_E_boundary" to="I_1_2" priority="2" numLanes="1" speed="13.89" />
    <edge id="I_1_2_to_I_1_2_E_boundary" from="I_1_2" to="I_1_2_E_boundary" priority="2" numLanes="1" speed="13.89" />
    <edge id="I_2_2_E_boundary_to_I_2_2" from="I_2_2_E_boundary" to="I_2_2" priority="2" numLanes="1" speed="13.89" />
    <edge id="I_2_2_to_I_2_2_E_boundary" from="I_2_2" to="I_2_2_E_boundary" priority="2" numLanes="1" speed="13.89" />
</edges>
