<?xml version="1.0" encoding="UTF-8"?>
<routes xmlns:xsi="http://www.w3.org/2001/XMLSchema-instance" xsi:noNamespaceSchemaLocation="http://sumo.dlr.de/xsd/routes_file.xsd">

    <vType id="car" accel="2.6" decel="4.5" sigma="0.5" length="5" minGap="2.5" maxSpeed="13.89" guiShape="passenger"/>

    <route id="route_0" edges="I_0_0_N_boundary_to_I_0_0 I_0_0_to_I_0_1 I_0_1_to_I_1_1 I_1_1_to_I_2_1 I_2_1_to_I_2_1_S_boundary"/>
    <vehicle id="vehicle_0" type="car" route="route_0" depart="0.21"/>
    <route id="route_1" edges="I_2_1_S_boundary_to_I_2_1 I_2_1_to_I_2_0 I_2_0_to_I_1_0 I_1_0_to_I_1_0_W_boundary"/>
    <vehicle id="vehicle_1" type="car" route="route_1" depart="3.75"/>
    <route id="route_2" edges="I_2_0_S_boundary_to_I_2_0 I_2_0_to_I_2_1 I_2_1_to_I_1_1 I_1_1_to_I_0_1 I_0_1_to_I_0_1_N_boundary"/>
    <vehicle id="vehicle_2" type="car" route="route_2" depart="9.83"/>
    <route id="route_3" edges="I_1_0_W_boundary_to_I_1_0 I_1_0_to_I_0_0 I_0_0_to_I_0_0_N_boundary"/>
    <vehicle id="vehicle_3" type="car" route="route_3" depart="13.46"/>
    <route id="route_4" edges="I_2_2_E_boundary_to_I_2_2 I_2_2_to_I_2_1 I_2_1_to_I_2_0 I_2_0_to_I_1_0 I_1_0_to_I_0_0 I_0_0_to_I_0_0_N_boundary"/>
    <vehicle id="vehicle_4" type="car" route="route_4" depart="16.22"/>
    <route id="route_5" edges="I_0_0_N_boundary_to_I_0_0 I_0_0_to_I_0_1 I_0_1_to_I_0_1_N_boundary"/>
    <vehicle id="vehicle_5" type="car" route="route_5" depart="22.73"/>
    <route id="route_6" edges="I_1_0_W_boundary_to_I_1_0 I_1_0_to_I_2_0 I_2_0_to_I_2_0_S_boundary"/>
    <vehicle id="vehicle_6" type="car" route="route_6" depart="25.53"/>
    <route id="route_7" edges="I_0_0_N_boundary_to_I_0_0 I_0_0_to_I_0_1 I_0_1_to_I_0_2 I_0_2_to_I_1_2 I_1_2_to_I_1_2_E_boundary"/>
    <vehicle id="vehicle_7" type="car" route="route_7" depart="29.15"/>
    <route id="route_8" edges="I_0_2_N_boundary_to_I_0_2 I_0_2_to_I_0_1 I_0_1_to_I_0_0 I_0_0_to_I_1_0 I_1_0_to_I_2_0 I_2_0_to_I_2_0_W_boundary"/>
    <vehicle id="vehicle_8" type="car" route="route_8" depart="34.05"/>
    <route id="route_9" edges="I_2_1_S_boundary_to_I_2_1 I_2_1_to_I_2_0 I_2_0_to_I_1_0 I_1_0_to_I_0_0 I_0_0_to_I_0_0_W_boundary"/>
    <vehicle id="vehicle_9" type="car" route="route_9" depart="38.84"/>
    <route id="route_10" edges="I_0_0_N_boundary_to_I_0_0 I_0_0_to_I_0_1 I_0_1_to_I_0_2 I_0_2_to_I_1_2 I_1_2_to_I_1_2_E_boundary"/>
    <vehicle id="vehicle_10" type="car" route="route_10" depart="42.56"/>
    <route id="route_11" edges="I_2_1_S_boundary_to_I_2_1 I_2_1_to_I_1_1 I_1_1_to_I_0_1 I_0_1_to_I_0_1_N_boundary"/>
    <vehicle id="vehicle_11" type="car" route="route_11" depart="48.38"/>
    <route id="route_12" edges="I_0_1_N_boundary_to_I_0_1 I_0_1_to_I_0_0 I_0_0_to_I_0_0_W_boundary"/>
    <vehicle id="vehicle_12" type="car" route="route_12" depart="51.46"/>
    <route id="route_13" edges="I_2_2_E_boundary_to_I_2_2 I_2_2_to_I_2_1 I_2_1_to_I_1_1 I_1_1_to_I_0_1 I_0_1_to_I_0_1_N_boundary"/>
    <vehicle id="vehicle_13" type="car" route="route_13" depart="55.83"/>
    <route id="route_14" edges="I_2_0_W_boundary_to_I_2_0 I_2_0_to_I_1_0 I_1_0_to_I_0_0 I_0_0_to_I_0_0_N_boundary"/>
    <vehicle id="vehicle_14" type="car" route="route_14" depart="59.55"/>
    <route id="route_15" edges="I_2_0_W_boundary_to_I_2_0 I_2_0_to_I_1_0 I_1_0_to_I_0_0 I_0_0_to_I_0_0_W_boundary"/>
    <vehicle id="vehicle_15" type="car" route="route_15" depart="65.86"/>
    <route id="route_16" edges="I_0_2_E_boundary_to_I_0_2 I_0_2_to_I_0_1 I_0_1_to_I_1_1 I_1_1_to_I_2_1 I_2_1_to_I_2_1_S_boundary"/>
    <vehicle id="vehicle_16" type="car" route="route_16" depart="68.63"/>
    <route id="route_17" edges="I_1_2_E_boundary_to_I_1_2 I_1_2_to_I_1_1 I_1_1_to_I_0_1 I_0_1_to_I_0_1_N_boundary"/>
    <vehicle id="vehicle_17" type="car" route="route_17" depart="74.39"/>
    <route id="route_18" edges="I_0_0_W_boundary_to_I_0_0 I_0_0_to_I_1_0 I_1_0_to_I_1_0_W_boundary"/>
    <vehicle id="vehicle_18" type="car" route="route_18" depart="77.85"/>
    <route id="route_19" edges="I_0_2_E_boundary_to_I_0_2 I_0_2_to_I_0_1 I_0_1_to_I_0_0 I_0_0_to_I_1_0 I_1_0_to_I_1_0_W_boundary"/>
    <vehicle id="vehicle_19" type="car" route="route_19" depart="82.64"/>
    <route id="route_20" edges="I_1_2_E_boundary_to_I_1_2 I_1_2_to_I_1_1 I_1_1_to_I_1_0 I_1_0_to_I_1_0_W_boundary"/>
    <vehicle id="vehicle_20" type="car" route="route_20" depart="86.38"/>
    <route id="route_21" edges="I_0_0_W_boundary_to_I_0_0 I_0_0_to_I_1_0 I_1_0_to_I_1_0_W_boundary"/>
    <vehicle id="vehicle_21" type="car" route="route_21" depart="90.28"/>
    <route id="route_22" edges="I_0_0_N_boundary_to_I_0_0 I_0_0_to_I_0_1 I_0_1_to_I_1_1 I_1_1_to_I_2_1 I_2_1_to_I_2_1_S_boundary"/>
    <vehicle id="vehicle_22" type="car" route="route_22" depart="95.96"/>
    <route id="route_23" edges="I_1_0_W_boundary_to_I_1_0 I_1_0_to_I_2_0 I_2_0_to_I_2_0_W_boundary"/>
    <vehicle id="vehicle_23" type="car" route="route_23" depart="98.14"/>
    <route id="route_24" edges="I_2_1_S_boundary_to_I_2_1 I_2_1_to_I_1_1 I_1_1_to_I_0_1 I_0_1_to_I_0_1_N_boundary"/>
    <vehicle id="vehicle_24" type="car" route="route_24" depart="104.73"/>
    <route id="route_25" edges="I_2_1_S_boundary_to_I_2_1 I_2_1_to_I_1_1 I_1_1_to_I_0_1 I_0_1_to_I_0_1_N_boundary"/>
    <vehicle id="vehicle_25" type="car" route="route_25" depart="109.24"/>
    <route id="route_26" edges="I_1_0_W_boundary_to_I_1_0 I_1_0_to_I_1_1 I_1_1_to_I_2_1 I_2_1_to_I_2_1_S_boundary"/>
    <vehicle id="vehicle_26" type="car" route="route_26" depart="111.15"/>
    <route id="route_27" edges="I_2_1_S_boundary_to_I_2_1 I_2_1_to_I_2_0 I_2_0_to_I_1_0 I_1_0_to_I_0_0 I_0_0_to_I_0_0_W_boundary"/>
    <vehicle id="vehicle_27" type="car" route="route_27" depart="117.81"/>
    <route id="route_28" edges="I_1_0_W_boundary_to_I_1_0 I_1_0_to_I_1_1 I_1_1_to_I_1_2 I_1_2_to_I_0_2 I_0_2_to_I_0_2_E_boundary"/>
    <vehicle id="vehicle_28" type="car" route="route_28" depart="120.15"/>
    <route id="route_29" edges="I_0_2_E_boundary_to_I_0_2 I_0_2_to_I_0_1 I_0_1_to_I_0_1_N_boundary"/>
    <vehicle id="vehicle_29" type="car" route="route_29" depart="124.48"/>
    <route id="route_30" edges="I_2_0_W_boundary_to_I_2_0 I_2_0_to_I_2_1 I_2_1_to_I_2_2 I_2_2_to_I_1_2 I_1_2_to_I_0_2 I_0_2_to_I_0_2_E_boundary"/>
    <vehicle id="vehicle_30" type="car" route="route_30" depart="130.91"/>
    <route id="route_31" edges="I_1_0_W_boundary_to_I_1_0 I_1_0_to_I_1_1 I_1_1_to_I_1_2 I_1_2_to_I_2_2 I_2_2_to_I_2_2_S_boundary"/>
    <vehicle id="vehicle_31" type="car" route="route_31" depart="133.09"/>
    <route id="route_32" edges="I_2_1_S_boundary_to_I_2_1 I_2_1_to_I_2_0 I_2_0_to_I_2_0_S_boundary"/>
    <vehicle id="vehicle_32" type="car" route="route_32" depart="138.38"/>
    <route id="route_33" edges="I_1_2_E_boundary_to_I_1_2 I_1_2_to_I_1_1 I_1_1_to_I_1_0 I_1_0_to_I_2_0 I_2_0_to_I_2_0_W_boundary"/>
    <vehicle id="vehicle_33" type="car" route="route_33" depart="142.30"/>
    <route id="route_34" edges="I_0_0_N_boundary_to_I_0_0 I_0_0_to_I_1_0 I_1_0_to_I_1_0_W_boundary"/>
    <vehicle id="vehicle_34" type="car" route="route_34" depart="145.78"/>
    <route id="route_35" edges="I_0_2_N_boundary_to_I_0_2 I_0_2_to_I_0_1 I_0_1_to_I_1_1 I_1_1_to_I_2_1 I_2_1_to_I_2_1_S_boundary"/>
    <vehicle id="vehicle_35" type="car" route="route_35" depart="152.37"/>
    <route id="route_36" edges="I_2_2_E_boundary_to_I_2_2 I_2_2_to_I_1_2 I_1_2_to_I_0_2 I_0_2_to_I_0_2_N_boundary"/>
    <vehicle id="vehicle_36" type="car" route="route_36" depart="156.15"/>
    <route id="route_37" edges="I_1_2_E_boundary_to_I_1_2 I_1_2_to_I_1_1 I_1_1_to_I_1_0 I_1_0_to_I_0_0 I_0_0_to_I_0_0_N_boundary"/>
    <vehicle id="vehicle_37" type="car" route="route_37" depart="160.67"/>
    <route id="route_38" edges="I_0_2_E_boundary_to_I_0_2 I_0_2_to_I_1_2 I_1_2_to_I_2_2 I_2_2_to_I_2_2_E_boundary"/>
    <vehicle id="vehicle_38" type="car" route="route_38" depart="165.50"/>
    <route id="route_39" edges="I_0_1_N_boundary_to_I_0_1 I_0_1_to_I_0_2 I_0_2_to_I_0_2_E_boundary"/>
    <vehicle id="vehicle_39" type="car" route="route_39" depart="167.97"/>
    <route id="route_40" edges="I_1_0_W_boundary_to_I_1_0 I_1_0_to_I_1_1 I_1_1_to_I_0_1 I_0_1_to_I_0_1_N_boundary"/>
    <vehicle id="vehicle_40" type="car" route="route_40" depart="173.81"/>
    <route id="route_41" edges="I_0_2_N_boundary_to_I_0_2 I_0_2_to_I_0_1 I_0_1_to_I_1_1 I_1_1_to_I_2_1 I_2_1_to_I_2_1_S_boundary"/>
    <vehicle id="vehicle_41" type="car" route="route_41" depart="176.89"/>
    <route id="route_42" edges="I_1_0_W_boundary_to_I_1_0 I_1_0_to_I_1_1 I_1_1_to_I_2_1 I_2_1_to_I_2_1_S_boundary"/>
    <vehicle id="vehicle_42" type="car" route="route_42" depart="182.09"/>
    <route id="route_43" edges="I_1_0_W_boundary_to_I_1_0 I_1_0_to_I_1_1 I_1_1_to_I_2_1 I_2_1_to_I_2_1_S_boundary"/>
    <vehicle id="vehicle_43" type="car" route="route_43" depart="185.42"/>
    <route id="route_44" edges="I_2_2_E_boundary_to_I_2_2 I_2_2_to_I_2_1 I_2_1_to_I_2_0 I_2_0_to_I_1_0 I_1_0_to_I_0_0 I_0_0_to_I_0_0_W_boundary"/>
    <vehicle id="vehicle_44" type="car" route="route_44" depart="190.08"/>
    <route id="route_45" edges="I_0_2_E_boundary_to_I_0_2 I_0_2_to_I_0_1 I_0_1_to_I_0_0 I_0_0_to_I_1_0 I_1_0_to_I_2_0 I_2_0_to_I_2_0_S_boundary"/>
    <vehicle id="vehicle_45" type="car" route="route_45" depart="194.49"/>
    <route id="route_46" edges="I_1_0_W_boundary_to_I_1_0 I_1_0_to_I_1_1 I_1_1_to_I_2_1 I_2_1_to_I_2_1_S_boundary"/>
    <vehicle id="vehicle_46" type="car" route="route_46" depart="198.82"/>
    <route id="route_47" edges="I_0_2_N_boundary_to_I_0_2 I_0_2_to_I_0_1 I_0_1_to_I_0_0 I_0_0_to_I_0_0_N_boundary"/>
    <vehicle id="vehicle_47" type="car" route="route_47" depart="202.20"/>
    <route id="route_48" edges="I_0_1_N_boundary_to_I_0_1 I_0_1_to_I_0_2 I_0_2_to_I_1_2 I_1_2_to_I_2_2 I_2_2_to_I_2_2_E_boundary"/>
    <vehicle id="vehicle_48" type="car" route="route_48" depart="207.16"/>
    <route id="route_49" edges="I_0_0_W_boundary_to_I_0_0 I_0_0_to_I_0_1 I_0_1_to_I_0_2 I_0_2_to_I_0_2_E_boundary"/>
    <vehicle id="vehicle_49" type="car" route="route_49" depart="212.77"/>
    <route id="route_50" edges="I_1_0_W_boundary_to_I_1_0 I_1_0_to_I_1_1 I_1_1_to_I_1_2 I_1_2_to_I_0_2 I_0_2_to_I_0_2_N_boundary"/>
    <vehicle id="vehicle_50" type="car" route="route_50" depart="215.51"/>
    <route id="route_51" edges="I_1_2_E_boundary_to_I_1_2 I_1_2_to_I_1_1 I_1_1_to_I_2_1 I_2_1_to_I_2_1_S_boundary"/>
    <vehicle id="vehicle_51" type="car" route="route_51" depart="221.17"/>
    <route id="route_52" edges="I_0_1_N_boundary_to_I_0_1 I_0_1_to_I_0_2 I_0_2_to_I_1_2 I_1_2_to_I_2_2 I_2_2_to_I_2_2_S_boundary"/>
    <vehicle id="vehicle_52" type="car" route="route_52" depart="224.42"/>
    <route id="route_53" edges="I_0_1_N_boundary_to_I_0_1 I_0_1_to_I_0_2 I_0_2_to_I_0_2_E_boundary"/>
    <vehicle id="vehicle_53" type="car" route="route_53" depart="229.77"/>
    <route id="route_54" edges="I_2_0_W_boundary_to_I_2_0 I_2_0_to_I_1_0 I_1_0_to_I_0_0 I_0_0_to_I_0_0_W_boundary"/>
    <vehicle id="vehicle_54" type="car" route="route_54" depart="233.55"/>
    <route id="route_55" edges="I_2_0_W_boundary_to_I_2_0 I_2_0_to_I_2_1 I_2_1_to_I_2_2 I_2_2_to_I_1_2 I_1_2_to_I_1_2_E_boundary"/>
    <vehicle id="vehicle_55" type="car" route="route_55" depart="237.39"/>
    <route id="route_56" edges="I_1_0_W_boundary_to_I_1_0 I_1_0_to_I_1_1 I_1_1_to_I_0_1 I_0_1_to_I_0_1_N_boundary"/>
    <vehicle id="vehicle_56" type="car" route="route_56" depart="242.20"/>
    <route id="route_57" edges="I_1_2_E_boundary_to_I_1_2 I_1_2_to_I_0_2 I_0_2_to_I_0_2_E_boundary"/>
    <vehicle id="vehicle_57" type="car" route="route_57" depart="245.86"/>
    <route id="route_58" edges="I_0_0_W_boundary_to_I_0_0 I_0_0_to_I_0_1 I_0_1_to_I_0_1_N_boundary"/>
    <vehicle id="vehicle_58" type="car" route="route_58" depart="250.67"/>
    <route id="route_59" edges="I_2_1_S_boundary_to_I_2_1 I_2_1_to_I_2_0 I_2_0_to_I_1_0 I_1_0_to_I_1_0_W_boundary"/>
    <vehicle id="vehicle_59" type="car" route="route_59" depart="255.36"/>
    <route id="route_60" edges="I_0_0_N_boundary_to_I_0_0 I_0_0_to_I_1_0 I_1_0_to_I_1_0_W_boundary"/>
    <vehicle id="vehicle_60" type="car" route="route_60" depart="258.61"/>
    <route id="route_61" edges="I_0_0_N_boundary_to_I_0_0 I_0_0_to_I_0_1 I_0_1_to_I_0_2 I_0_2_to_I_0_2_N_boundary"/>
    <vehicle id="vehicle_61" type="car" route="route_61" depart="264.41"/>
    <route id="route_62" edges="I_2_2_E_boundary_to_I_2_2 I_2_2_to_I_2_1 I_2_1_to_I_1_1 I_1_1_to_I_0_1 I_0_1_to_I_0_1_N_boundary"/>
    <vehicle id="vehicle_62" type="car" route="route_62" depart="268.97"/>
    <route id="route_63" edges="I_2_2_S_boundary_to_I_2_2 I_2_2_to_I_1_2 I_1_2_to_I_0_2 I_0_2_to_I_0_2_E_boundary"/>
    <vehicle id="vehicle_63" type="car" route="route_63" depart="271.38"/>
    <route id="route_64" edges="I_1_0_W_boundary_to_I_1_0 I_1_0_to_I_1_1 I_1_1_to_I_1_2 I_1_2_to_I_2_2 I_2_2_to_I_2_2_S_boundary"/>
    <vehicle id="vehicle_64" type="car" route="route_64" depart="276.38"/>
    <route id="route_65" edges="I_1_2_E_boundary_to_I_1_2 I_1_2_to_I_0_2 I_0_2_to_I_0_2_E_boundary"/>
    <vehicle id="vehicle_65" type="car" route="route_65" depart="282.10"/>
    <route id="route_66" edges="I_2_0_W_boundary_to_I_2_0 I_2_0_to_I_2_1 I_2_1_to_I_2_2 I_2_2_to_I_2_2_E_boundary"/>
    <vehicle id="vehicle_66" type="car" route="route_66" depart="284.06"/>
    <route id="route_67" edges="I_0_2_N_boundary_to_I_0_2 I_0_2_to_I_1_2 I_1_2_to_I_2_2 I_2_2_to_I_2_2_S_boundary"/>
    <vehicle id="vehicle_67" type="car" route="route_67" depart="289.29"/>
    <route id="route_68" edges="I_2_1_S_boundary_to_I_2_1 I_2_1_to_I_2_2 I_2_2_to_I_1_2 I_1_2_to_I_0_2 I_0_2_to_I_0_2_E_boundary"/>
    <vehicle id="vehicle_68" type="car" route="route_68" depart="294.05"/>
    <route id="route_69" edges="I_2_1_S_boundary_to_I_2_1 I_2_1_to_I_2_0 I_2_0_to_I_1_0 I_1_0_to_I_0_0 I_0_0_to_I_0_0_W_boundary"/>
    <vehicle id="vehicle_69" type="car" route="route_69" depart="297.59"/>
    <route id="route_70" edges="I_1_0_W_boundary_to_I_1_0 I_1_0_to_I_1_1 I_1_1_to_I_1_2 I_1_2_to_I_2_2 I_2_2_to_I_2_2_S_boundary"/>
    <vehicle id="vehicle_70" type="car" route="route_70" depart="302.30"/>
    <route id="route_71" edges="I_1_0_W_boundary_to_I_1_0 I_1_0_to_I_0_0 I_0_0_to_I_0_0_W_boundary"/>
    <vehicle id="vehicle_71" type="car" route="route_71" depart="306.17"/>
    <route id="route_72" edges="I_0_0_W_boundary_to_I_0_0 I_0_0_to_I_0_1 I_0_1_to_I_0_2 I_0_2_to_I_1_2 I_1_2_to_I_1_2_E_boundary"/>
    <vehicle id="vehicle_72" type="car" route="route_72" depart="311.33"/>
    <route id="route_73" edges="I_0_2_E_boundary_to_I_0_2 I_0_2_to_I_0_1 I_0_1_to_I_0_0 I_0_0_to_I_1_0 I_1_0_to_I_1_0_W_boundary"/>
    <vehicle id="vehicle_73" type="car" route="route_73" depart="316.48"/>
    <route id="route_74" edges="I_2_0_W_boundary_to_I_2_0 I_2_0_to_I_1_0 I_1_0_to_I_0_0 I_0_0_to_I_0_0_N_boundary"/>
    <vehicle id="vehicle_74" type="car" route="route_74" depart="320.90"/>
    <route id="route_75" edges="I_2_0_W_boundary_to_I_2_0 I_2_0_to_I_2_1 I_2_1_to_I_2_2 I_2_2_to_I_2_2_S_boundary"/>
    <vehicle id="vehicle_75" type="car" route="route_75" depart="323.50"/>
    <route id="route_76" edges="I_0_0_N_boundary_to_I_0_0 I_0_0_to_I_0_1 I_0_1_to_I_0_1_N_boundary"/>
    <vehicle id="vehicle_76" type="car" route="route_76" depart="328.35"/>
    <route id="route_77" edges="I_2_2_E_boundary_to_I_2_2 I_2_2_to_I_1_2 I_1_2_to_I_1_2_E_boundary"/>
    <vehicle id="vehicle_77" type="car" route="route_77" depart="332.08"/>
    <route id="route_78" edges="I_0_2_E_boundary_to_I_0_2 I_0_2_to_I_0_1 I_0_1_to_I_0_0 I_0_0_to_I_1_0 I_1_0_to_I_2_0 I_2_0_to_I_2_0_W_boundary"/>
    <vehicle id="vehicle_78" type="car" route="route_78" depart="337.17"/>
    <route id="route_79" edges="I_2_0_W_boundary_to_I_2_0 I_2_0_to_I_1_0 I_1_0_to_I_1_0_W_boundary"/>
    <vehicle id="vehicle_79" type="car" route="route_79" depart="341.85"/>
    <route id="route_80" edges="I_0_0_N_boundary_to_I_0_0 I_0_0_to_I_0_1 I_0_1_to_I_0_2 I_0_2_to_I_0_2_E_boundary"/>
    <vehicle id="vehicle_80" type="car" route="route_80" depart="345.51"/>
    <route id="route_81" edges="I_1_0_W_boundary_to_I_1_0 I_1_0_to_I_1_1 I_1_1_to_I_1_2 I_1_2_to_I_2_2 I_2_2_to_I_2_2_S_boundary"/>
    <vehicle id="vehicle_81" type="car" route="route_81" depart="350.84"/>
    <route id="route_82" edges="I_2_2_E_boundary_to_I_2_2 I_2_2_to_I_2_1 I_2_1_to_I_1_1 I_1_1_to_I_0_1 I_0_1_to_I_0_1_N_boundary"/>
    <vehicle id="vehicle_82" type="car" route="route_82" depart="355.23"/>
    <route id="route_83" edges="I_2_1_S_boundary_to_I_2_1 I_2_1_to_I_2_0 I_2_0_to_I_2_0_W_boundary"/>
    <vehicle id="vehicle_83" type="car" route="route_83" depart="358.19"/>
    <route id="route_84" edges="I_1_0_W_boundary_to_I_1_0 I_1_0_to_I_2_0 I_2_0_to_I_2_0_S_boundary"/>
    <vehicle id="vehicle_84" type="car" route="route_84" depart="363.07"/>
    <route id="route_85" edges="I_1_2_E_boundary_to_I_1_2 I_1_2_to_I_1_1 I_1_1_to_I_1_0 I_1_0_to_I_1_0_W_boundary"/>
    <vehicle id="vehicle_85" type="car" route="route_85" depart="366.90"/>
    <route id="route_86" edges="I_2_0_S_boundary_to_I_2_0 I_2_0_to_I_1_0 I_1_0_to_I_0_0 I_0_0_to_I_0_0_N_boundary"/>
    <vehicle id="vehicle_86" type="car" route="route_86" depart="372.62"/>
    <route id="route_87" edges="I_2_2_S_boundary_to_I_2_2 I_2_2_to_I_2_1 I_2_1_to_I_2_0 I_2_0_to_I_1_0 I_1_0_to_I_1_0_W_boundary"/>
    <vehicle id="vehicle_87" type="car" route="route_87" depart="376.82"/>
    <route id="route_88" edges="I_0_1_N_boundary_to_I_0_1 I_0_1_to_I_0_0 I_0_0_to_I_1_0 I_1_0_to_I_1_0_W_boundary"/>
    <vehicle id="vehicle_88" type="car" route="route_88" depart="379.29"/>
    <route id="route_89" edges="I_0_1_N_boundary_to_I_0_1 I_0_1_to_I_0_0 I_0_0_to_I_1_0 I_1_0_to_I_2_0 I_2_0_to_I_2_0_S_boundary"/>
    <vehicle id="vehicle_89" type="car" route="route_89" depart="385.39"/>
    <route id="route_90" edges="I_0_2_N_boundary_to_I_0_2 I_0_2_to_I_0_1 I_0_1_to_I_0_0 I_0_0_to_I_0_0_N_boundary"/>
    <vehicle id="vehicle_90" type="car" route="route_90" depart="387.78"/>
    <route id="route_91" edges="I_0_2_E_boundary_to_I_0_2 I_0_2_to_I_0_1 I_0_1_to_I_0_0 I_0_0_to_I_1_0 I_1_0_to_I_2_0 I_2_0_to_I_2_0_S_boundary"/>
    <vehicle id="vehicle_91" type="car" route="route_91" depart="393.87"/>
    <route id="route_92" edges="I_2_2_S_boundary_to_I_2_2 I_2_2_to_I_1_2 I_1_2_to_I_1_2_E_boundary"/>
    <vehicle id="vehicle_92" type="car" route="route_92" depart="397.12"/>
    <route id="route_93" edges="I_0_0_N_boundary_to_I_0_0 I_0_0_to_I_1_0 I_1_0_to_I_1_0_W_boundary"/>
    <vehicle id="vehicle_93" type="car" route="route_93" depart="401.62"/>
    <route id="route_94" edges="I_2_0_S_boundary_to_I_2_0 I_2_0_to_I_2_1 I_2_1_to_I_2_2 I_2_2_to_I_2_2_E_boundary"/>
    <vehicle id="vehicle_94" type="car" route="route_94" depart="405.74"/>
    <route id="route_95" edges="I_1_2_E_boundary_to_I_1_2 I_1_2_to_I_1_1 I_1_1_to_I_1_0 I_1_0_to_I_0_0 I_0_0_to_I_0_0_W_boundary"/>
    <vehicle id="vehicle_95" type="car" route="route_95" depart="411.14"/>
    <route id="route_96" edges="I_2_1_S_boundary_to_I_2_1 I_2_1_to_I_2_0 I_2_0_to_I_2_0_S_boundary"/>
    <vehicle id="vehicle_96" type="car" route="route_96" depart="415.36"/>
    <route id="route_97" edges="I_0_0_N_boundary_to_I_0_0 I_0_0_to_I_0_1 I_0_1_to_I_0_2 I_0_2_to_I_1_2 I_1_2_to_I_2_2 I_2_2_to_I_2_2_E_boundary"/>
    <vehicle id="vehicle_97" type="car" route="route_97" depart="418.82"/>
    <route id="route_98" edges="I_0_1_N_boundary_to_I_0_1 I_0_1_to_I_0_2 I_0_2_to_I_0_2_N_boundary"/>
    <vehicle id="vehicle_98" type="car" route="route_98" depart="422.99"/>
    <route id="route_99" edges="I_2_2_S_boundary_to_I_2_2 I_2_2_to_I_2_1 I_2_1_to_I_2_0 I_2_0_to_I_1_0 I_1_0_to_I_0_0 I_0_0_to_I_0_0_N_boundary"/>
    <vehicle id="vehicle_99" type="car" route="route_99" depart="426.62"/>
    <route id="route_100" edges="I_0_2_N_boundary_to_I_0_2 I_0_2_to_I_0_1 I_0_1_to_I_1_1 I_1_1_to_I_2_1 I_2_1_to_I_2_1_S_boundary"/>
    <vehicle id="vehicle_100" type="car" route="route_100" depart="431.52"/>
    <route id="route_101" edges="I_1_2_E_boundary_to_I_1_2 I_1_2_to_I_1_1 I_1_1_to_I_1_0 I_1_0_to_I_2_0 I_2_0_to_I_2_0_W_boundary"/>
    <vehicle id="vehicle_101" type="car" route="route_101" depart="437.11"/>
    <route id="route_102" edges="I_1_0_W_boundary_to_I_1_0 I_1_0_to_I_1_1 I_1_1_to_I_1_2 I_1_2_to_I_0_2 I_0_2_to_I_0_2_E_boundary"/>
    <vehicle id="vehicle_102" type="car" route="route_102" depart="440.89"/>
    <route id="route_103" edges="I_1_0_W_boundary_to_I_1_0 I_1_0_to_I_1_1 I_1_1_to_I_0_1 I_0_1_to_I_0_1_N_boundary"/>
    <vehicle id="vehicle_103" type="car" route="route_103" depart="445.86"/>
    <route id="route_104" edges="I_0_0_N_boundary_to_I_0_0 I_0_0_to_I_1_0 I_1_0_to_I_1_0_W_boundary"/>
    <vehicle id="vehicle_104" type="car" route="route_104" depart="449.40"/>
    <route id="route_105" edges="I_2_1_S_boundary_to_I_2_1 I_2_1_to_I_1_1 I_1_1_to_I_0_1 I_0_1_to_I_0_1_N_boundary"/>
    <vehicle id="vehicle_105" type="car" route="route_105" depart="453.87"/>
    <route id="route_106" edges="I_0_2_N_boundary_to_I_0_2 I_0_2_to_I_0_1 I_0_1_to_I_0_0 I_0_0_to_I_1_0 I_1_0_to_I_1_0_W_boundary"/>
    <vehicle id="vehicle_106" type="car" route="route_106" depart="458.47"/>
    <route id="route_107" edges="I_2_0_S_boundary_to_I_2_0 I_2_0_to_I_1_0 I_1_0_to_I_1_0_W_boundary"/>
    <vehicle id="vehicle_107" type="car" route="route_107" depart="462.91"/>
    <route id="route_108" edges="I_0_0_W_boundary_to_I_0_0 I_0_0_to_I_1_0 I_1_0_to_I_2_0 I_2_0_to_I_2_0_S_boundary"/>
    <vehicle id="vehicle_108" type="car" route="route_108" depart="466.40"/>
    <route id="route_109" edges="I_0_2_E_boundary_to_I_0_2 I_0_2_to_I_1_2 I_1_2_to_I_2_2 I_2_2_to_I_2_2_E_boundary"/>
    <vehicle id="vehicle_109" type="car" route="route_109" depart="471.28"/>
    <route id="route_110" edges="I_2_1_S_boundary_to_I_2_1 I_2_1_to_I_2_0 I_2_0_to_I_1_0 I_1_0_to_I_1_0_W_boundary"/>
    <vehicle id="vehicle_110" type="car" route="route_110" depart="476.67"/>
    <route id="route_111" edges="I_2_1_S_boundary_to_I_2_1 I_2_1_to_I_2_0 I_2_0_to_I_1_0 I_1_0_to_I_1_0_W_boundary"/>
    <vehicle id="vehicle_111" type="car" route="route_111" depart="479.82"/>
    <route id="route_112" edges="I_2_0_S_boundary_to_I_2_0 I_2_0_to_I_1_0 I_1_0_to_I_1_0_W_boundary"/>
    <vehicle id="vehicle_112" type="car" route="route_112" depart="484.24"/>
    <route id="route_113" edges="I_0_0_W_boundary_to_I_0_0 I_0_0_to_I_1_0 I_1_0_to_I_1_0_W_boundary"/>
    <vehicle id="vehicle_113" type="car" route="route_113" depart="489.49"/>
    <route id="route_114" edges="I_0_2_E_boundary_to_I_0_2 I_0_2_to_I_0_1 I_0_1_to_I_0_0 I_0_0_to_I_0_0_W_boundary"/>
    <vehicle id="vehicle_114" type="car" route="route_114" depart="493.38"/>
    <route id="route_115" edges="I_0_1_N_boundary_to_I_0_1 I_0_1_to_I_0_0 I_0_0_to_I_1_0 I_1_0_to_I_2_0 I_2_0_to_I_2_0_W_boundary"/>
    <vehicle id="vehicle_115" type="car" route="route_115" depart="497.23"/>
    <route id="route_116" edges="I_1_0_W_boundary_to_I_1_0 I_1_0_to_I_1_1 I_1_1_to_I_1_2 I_1_2_to_I_1_2_E_boundary"/>
    <vehicle id="vehicle_116" type="car" route="route_116" depart="501.39"/>
    <route id="route_117" edges="I_1_2_E_boundary_to_I_1_2 I_1_2_to_I_1_1 I_1_1_to_I_2_1 I_2_1_to_I_2_1_S_boundary"/>
    <vehicle id="vehicle_117" type="car" route="route_117" depart="504.86"/>
    <route id="route_118" edges="I_2_2_E_boundary_to_I_2_2 I_2_2_to_I_2_1 I_2_1_to_I_2_0 I_2_0_to_I_2_0_W_boundary"/>
    <vehicle id="vehicle_118" type="car" route="route_118" depart="510.83"/>
    <route id="route_119" edges="I_0_2_N_boundary_to_I_0_2 I_0_2_to_I_0_1 I_0_1_to_I_0_0 I_0_0_to_I_1_0 I_1_0_to_I_1_0_W_boundary"/>
    <vehicle id="vehicle_119" type="car" route="route_119" depart="514.83"/>
    <route id="route_120" edges="I_0_0_N_boundary_to_I_0_0 I_0_0_to_I_0_1 I_0_1_to_I_1_1 I_1_1_to_I_2_1 I_2_1_to_I_2_1_S_boundary"/>
    <vehicle id="vehicle_120" type="car" route="route_120" depart="517.40"/>
    <route id="route_121" edges="I_0_1_N_boundary_to_I_0_1 I_0_1_to_I_0_2 I_0_2_to_I_0_2_E_boundary"/>
    <vehicle id="vehicle_121" type="car" route="route_121" depart="523.06"/>
    <route id="route_122" edges="I_1_0_W_boundary_to_I_1_0 I_1_0_to_I_1_1 I_1_1_to_I_2_1 I_2_1_to_I_2_1_S_boundary"/>
    <vehicle id="vehicle_122" type="car" route="route_122" depart="527.19"/>
    <route id="route_123" edges="I_0_0_N_boundary_to_I_0_0 I_0_0_to_I_0_1 I_0_1_to_I_0_1_N_boundary"/>
    <vehicle id="vehicle_123" type="car" route="route_123" depart="530.44"/>
    <route id="route_124" edges="I_2_1_S_boundary_to_I_2_1 I_2_1_to_I_2_2 I_2_2_to_I_1_2 I_1_2_to_I_1_2_E_boundary"/>
    <vehicle id="vehicle_124" type="car" route="route_124" depart="535.61"/>
    <route id="route_125" edges="I_1_2_E_boundary_to_I_1_2 I_1_2_to_I_1_1 I_1_1_to_I_2_1 I_2_1_to_I_2_1_S_boundary"/>
    <vehicle id="vehicle_125" type="car" route="route_125" depart="539.79"/>
    <route id="route_126" edges="I_1_0_W_boundary_to_I_1_0 I_1_0_to_I_0_0 I_0_0_to_I_0_0_N_boundary"/>
    <vehicle id="vehicle_126" type="car" route="route_126" depart="543.84"/>
    <route id="route_127" edges="I_2_1_S_boundary_to_I_2_1 I_2_1_to_I_2_2 I_2_2_to_I_1_2 I_1_2_to_I_1_2_E_boundary"/>
    <vehicle id="vehicle_127" type="car" route="route_127" depart="548.47"/>
    <route id="route_128" edges="I_0_1_N_boundary_to_I_0_1 I_0_1_to_I_0_2 I_0_2_to_I_0_2_N_boundary"/>
    <vehicle id="vehicle_128" type="car" route="route_128" depart="553.92"/>
    <route id="route_129" edges="I_1_0_W_boundary_to_I_1_0 I_1_0_to_I_0_0 I_0_0_to_I_0_0_N_boundary"/>
    <vehicle id="vehicle_129" type="car" route="route_129" depart="557.18"/>
    <route id="route_130" edges="I_0_0_W_boundary_to_I_0_0 I_0_0_to_I_1_0 I_1_0_to_I_2_0 I_2_0_to_I_2_0_S_boundary"/>
    <vehicle id="vehicle_130" type="car" route="route_130" depart="562.81"/>
    <route id="route_131" edges="I_2_0_W_boundary_to_I_2_0 I_2_0_to_I_2_1 I_2_1_to_I_2_2 I_2_2_to_I_1_2 I_1_2_to_I_1_2_E_boundary"/>
    <vehicle id="vehicle_131" type="car" route="route_131" depart="565.34"/>
    <route id="route_132" edges="I_1_2_E_boundary_to_I_1_2 I_1_2_to_I_1_1 I_1_1_to_I_1_0 I_1_0_to_I_2_0 I_2_0_to_I_2_0_W_boundary"/>
    <vehicle id="vehicle_132" type="car" route="route_132" depart="569.87"/>
    <route id="route_133" edges="I_2_0_S_boundary_to_I_2_0 I_2_0_to_I_2_1 I_2_1_to_I_2_2 I_2_2_to_I_2_2_E_boundary"/>
    <vehicle id="vehicle_133" type="car" route="route_133" depart="575.63"/>
    <route id="route_134" edges="I_0_0_N_boundary_to_I_0_0 I_0_0_to_I_1_0 I_1_0_to_I_1_0_W_boundary"/>
    <vehicle id="vehicle_134" type="car" route="route_134" depart="578.01"/>
    <route id="route_135" edges="I_1_2_E_boundary_to_I_1_2 I_1_2_to_I_1_1 I_1_1_to_I_1_0 I_1_0_to_I_0_0 I_0_0_to_I_0_0_N_boundary"/>
    <vehicle id="vehicle_135" type="car" route="route_135" depart="584.09"/>
    <route id="route_136" edges="I_0_2_E_boundary_to_I_0_2 I_0_2_to_I_0_1 I_0_1_to_I_0_0 I_0_0_to_I_1_0 I_1_0_to_I_1_0_W_boundary"/>
    <vehicle id="vehicle_136" type="car" route="route_136" depart="587.62"/>
    <route id="route_137" edges="I_0_0_N_boundary_to_I_0_0 I_0_0_to_I_1_0 I_1_0_to_I_2_0 I_2_0_to_I_2_0_W_boundary"/>
    <vehicle id="vehicle_137" type="car" route="route_137" depart="590.88"/>
    <route id="route_138" edges="I_1_0_W_boundary_to_I_1_0 I_1_0_to_I_1_1 I_1_1_to_I_1_2 I_1_2_to_I_1_2_E_boundary"/>
    <vehicle id="vehicle_138" type="car" route="route_138" depart="597.54"/>
    <route id="route_139" edges="I_1_0_W_boundary_to_I_1_0 I_1_0_to_I_1_1 I_1_1_to_I_0_1 I_0_1_to_I_0_1_N_boundary"/>
    <vehicle id="vehicle_139" type="car" route="route_139" depart="601.53"/>
    <route id="route_140" edges="I_2_2_S_boundary_to_I_2_2 I_2_2_to_I_2_1 I_2_1_to_I_2_0 I_2_0_to_I_1_0 I_1_0_to_I_1_0_W_boundary"/>
    <vehicle id="vehicle_140" type="car" route="route_140" depart="604.18"/>
    <route id="route_141" edges="I_0_1_N_boundary_to_I_0_1 I_0_1_to_I_0_0 I_0_0_to_I_1_0 I_1_0_to_I_2_0 I_2_0_to_I_2_0_W_boundary"/>
    <vehicle id="vehicle_141" type="car" route="route_141" depart="609.52"/>
    <route id="route_142" edges="I_0_0_N_boundary_to_I_0_0 I_0_0_to_I_1_0 I_1_0_to_I_2_0 I_2_0_to_I_2_0_S_boundary"/>
    <vehicle id="vehicle_142" type="car" route="route_142" depart="613.12"/>
    <route id="route_143" edges="I_1_2_E_boundary_to_I_1_2 I_1_2_to_I_1_1 I_1_1_to_I_0_1 I_0_1_to_I_0_1_N_boundary"/>
    <vehicle id="vehicle_143" type="car" route="route_143" depart="618.32"/>
    <route id="route_144" edges="I_1_2_E_boundary_to_I_1_2 I_1_2_to_I_1_1 I_1_1_to_I_1_0 I_1_0_to_I_2_0 I_2_0_to_I_2_0_W_boundary"/>
    <vehicle id="vehicle_144" type="car" route="route_144" depart="622.20"/>
    <route id="route_145" edges="I_2_2_S_boundary_to_I_2_2 I_2_2_to_I_2_1 I_2_1_to_I_2_1_S_boundary"/>
    <vehicle id="vehicle_145" type="car" route="route_145" depart="627.35"/>
    <route id="route_146" edges="I_2_1_S_boundary_to_I_2_1 I_2_1_to_I_2_0 I_2_0_to_I_1_0 I_1_0_to_I_0_0 I_0_0_to_I_0_0_N_boundary"/>
    <vehicle id="vehicle_146" type="car" route="route_146" depart="630.18"/>
    <route id="route_147" edges="I_0_1_N_boundary_to_I_0_1 I_0_1_to_I_0_0 I_0_0_to_I_0_0_W_boundary"/>
    <vehicle id="vehicle_147" type="car" route="route_147" depart="635.48"/>
    <route id="route_148" edges="I_2_0_W_boundary_to_I_2_0 I_2_0_to_I_2_1 I_2_1_to_I_1_1 I_1_1_to_I_0_1 I_0_1_to_I_0_1_N_boundary"/>
    <vehicle id="vehicle_148" type="car" route="route_148" depart="638.39"/>
    <route id="route_149" edges="I_1_0_W_boundary_to_I_1_0 I_1_0_to_I_2_0 I_2_0_to_I_2_0_W_boundary"/>
    <vehicle id="vehicle_149" type="car" route="route_149" depart="643.21"/>
    <route id="route_150" edges="I_2_0_W_boundary_to_I_2_0 I_2_0_to_I_1_0 I_1_0_to_I_0_0 I_0_0_to_I_0_0_W_boundary"/>
    <vehicle id="vehicle_150" type="car" route="route_150" depart="648.52"/>
    <route id="route_151" edges="I_0_0_W_boundary_to_I_0_0 I_0_0_to_I_0_1 I_0_1_to_I_0_2 I_0_2_to_I_1_2 I_1_2_to_I_2_2 I_2_2_to_I_2_2_E_boundary"/>