<?xml version="1.0" encoding="UTF-8"?>
<routes xmlns:xsi="http://www.w3.org/2001/XMLSchema-instance" xsi:noNamespaceSchemaLocation="http://sumo.dlr.de/xsd/routes_file.xsd">

    <vType id="car" accel="2.6" decel="4.5" sigma="0.5" length="5" minGap="2.5" maxSpeed="13.89" guiShape="passenger"/>

    <route id="route_0" edges="I_0_1_N_boundary_to_I_0_1 I_0_1_to_I_0_0 I_0_0_to_I_1_0 I_1_0_to_I_2_0 I_2_0_to_I_2_0_W_boundary"/>
    <vehicle id="vehicle_0" type="car" route="route_0" depart="0.02"/>
    <route id="route_1" edges="I_2_2_S_boundary_to_I_2_2 I_2_2_to_I_2_1 I_2_1_to_I_2_0 I_2_0_to_I_1_0 I_1_0_to_I_1_0_W_boundary"/>
    <vehicle id="vehicle_1" type="car" route="route_1" depart="2.23"/>
    <route id="route_2" edges="I_2_0_W_boundary_to_I_2_0 I_2_0_to_I_2_1 I_2_1_to_I_2_2 I_2_2_to_I_2_2_E_boundary"/>
    <vehicle id="vehicle_2" type="car" route="route_2" depart="4.91"/>
    <route id="route_3" edges="I_1_0_W_boundary_to_I_1_0 I_1_0_to_I_1_1 I_1_1_to_I_2_1 I_2_1_to_I_2_1_S_boundary"/>
    <vehicle id="vehicle_3" type="car" route="route_3" depart="6.60"/>
    <route id="route_4" edges="I_1_0_W_boundary_to_I_1_0 I_1_0_to_I_1_1 I_1_1_to_I_1_2 I_1_2_to_I_0_2 I_0_2_to_I_0_2_N_boundary"/>
    <vehicle id="vehicle_4" type="car" route="route_4" depart="8.47"/>
    <route id="route_5" edges="I_0_2_N_boundary_to_I_0_2 I_0_2_to_I_0_1 I_0_1_to_I_0_0 I_0_0_to_I_1_0 I_1_0_to_I_2_0 I_2_0_to_I_2_0_W_boundary"/>
    <vehicle id="vehicle_5" type="car" route="route_5" depart="10.28"/>
    <route id="route_6" edges="I_2_2_S_boundary_to_I_2_2 I_2_2_to_I_2_1 I_2_1_to_I_2_1_S_boundary"/>
    <vehicle id="vehicle_6" type="car" route="route_6" depart="12.70"/>
    <route id="route_7" edges="I_2_0_S_boundary_to_I_2_0 I_2_0_to_I_2_1 I_2_1_to_I_2_1_S_boundary"/>
    <vehicle id="vehicle_7" type="car" route="route_7" depart="15.14"/>
    <route id="route_8" edges="I_1_0_W_boundary_to_I_1_0 I_1_0_to_I_1_1 I_1_1_to_I_1_2 I_1_2_to_I_1_2_E_boundary"/>
    <vehicle id="vehicle_8" type="car" route="route_8" depart="16.75"/>
    <route id="route_9" edges="I_0_2_N_boundary_to_I_0_2 I_0_2_to_I_1_2 I_1_2_to_I_2_2 I_2_2_to_I_2_2_S_boundary"/>
    <vehicle id="vehicle_9" type="car" route="route_9" depart="19.68"/>
    <route id="route_10" edges="I_0_0_N_boundary_to_I_0_0 I_0_0_to_I_0_1 I_0_1_to_I_1_1 I_1_1_to_I_2_1 I_2_1_to_I_2_1_S_boundary"/>
    <vehicle id="vehicle_10" type="car" route="route_10" depart="21.03"/>
    <route id="route_11" edges="I_2_2_E_boundary_to_I_2_2 I_2_2_to_I_2_1 I_2_1_to_I_1_1 I_1_1_to_I_0_1 I_0_1_to_I_0_1_N_boundary"/>
    <vehicle id="vehicle_11" type="car" route="route_11" depart="23.60"/>
    <route id="route_12" edges="I_0_0_N_boundary_to_I_0_0 I_0_0_to_I_0_1 I_0_1_to_I_0_1_N_boundary"/>
    <vehicle id="vehicle_12" type="car" route="route_12" depart="26.33"/>
    <route id="route_13" edges="I_0_1_N_boundary_to_I_0_1 I_0_1_to_I_0_0 I_0_0_to_I_0_0_W_boundary"/>
    <vehicle id="vehicle_13" type="car" route="route_13" depart="28.67"/>
    <route id="route_14" edges="I_0_1_N_boundary_to_I_0_1 I_0_1_to_I_0_2 I_0_2_to_I_1_2 I_1_2_to_I_2_2 I_2_2_to_I_2_2_E_boundary"/>
    <vehicle id="vehicle_14" type="car" route="route_14" depart="30.13"/>
    <route id="route_15" edges="I_1_2_E_boundary_to_I_1_2 I_1_2_to_I_1_1 I_1_1_to_I_2_1 I_2_1_to_I_2_1_S_boundary"/>
    <vehicle id="vehicle_15" type="car" route="route_15" depart="32.91"/>
    <route id="route_16" edges="I_2_1_S_boundary_to_I_2_1 I_2_1_to_I_2_0 I_2_0_to_I_1_0 I_1_0_to_I_1_0_W_boundary"/>
    <vehicle id="vehicle_16" type="car" route="route_16" depart="34.32"/>
    <route id="route_17" edges="I_2_0_S_boundary_to_I_2_0 I_2_0_to_I_1_0 I_1_0_to_I_0_0 I_0_0_to_I_0_0_W_boundary"/>
    <vehicle id="vehicle_17" type="car" route="route_17" depart="36.30"/>
    <route id="route_18" edges="I_0_2_E_boundary_to_I_0_2 I_0_2_to_I_0_1 I_0_1_to_I_1_1 I_1_1_to_I_2_1 I_2_1_to_I_2_1_S_boundary"/>
    <vehicle id="vehicle_18" type="car" route="route_18" depart="38.73"/>
    <route id="route_19" edges="I_0_2_N_boundary_to_I_0_2 I_0_2_to_I_0_1 I_0_1_to_I_0_0 I_0_0_to_I_1_0 I_1_0_to_I_1_0_W_boundary"/>
    <vehicle id="vehicle_19" type="car" route="route_19" depart="41.58"/>
    <route id="route_20" edges="I_2_2_E_boundary_to_I_2_2 I_2_2_to_I_1_2 I_1_2_to_I_0_2 I_0_2_to_I_0_2_N_boundary"/>
    <vehicle id="vehicle_20" type="car" route="route_20" depart="42.71"/>
    <route id="route_21" edges="I_2_2_S_boundary_to_I_2_2 I_2_2_to_I_1_2 I_1_2_to_I_0_2 I_0_2_to_I_0_2_E_boundary"/>
    <vehicle id="vehicle_21" type="car" route="route_21" depart="44.89"/>
    <route id="route_22" edges="I_2_0_W_boundary_to_I_2_0 I_2_0_to_I_1_0 I_1_0_to_I_0_0 I_0_0_to_I_0_0_N_boundary"/>
    <vehicle id="vehicle_22" type="car" route="route_22" depart="47.66"/>
    <route id="route_23" edges="I_2_2_S_boundary_to_I_2_2 I_2_2_to_I_2_1 I_2_1_to_I_2_0 I_2_0_to_I_2_0_W_boundary"/>
    <vehicle id="vehicle_23" type="car" route="route_23" depart="49.49"/>
    <route id="route_24" edges="I_2_0_W_boundary_to_I_2_0 I_2_0_to_I_2_1 I_2_1_to_I_2_1_S_boundary"/>
    <vehicle id="vehicle_24" type="car" route="route_24" depart="52.12"/>
    <route id="route_25" edges="I_0_0_W_boundary_to_I_0_0 I_0_0_to_I_1_0 I_1_0_to_I_2_0 I_2_0_to_I_2_0_W_boundary"/>
    <vehicle id="vehicle_25" type="car" route="route_25" depart="54.54"/>
    <route id="route_26" edges="I_0_1_N_boundary_to_I_0_1 I_0_1_to_I_0_0 I_0_0_to_I_1_0 I_1_0_to_I_2_0 I_2_0_to_I_2_0_S_boundary"/>
    <vehicle id="vehicle_26" type="car" route="route_26" depart="56.37"/>
    <route id="route_27" edges="I_0_2_N_boundary_to_I_0_2 I_0_2_to_I_0_1 I_0_1_to_I_1_1 I_1_1_to_I_2_1 I_2_1_to_I_2_1_S_boundary"/>
    <vehicle id="vehicle_27" type="car" route="route_27" depart="58.42"/>
    <route id="route_28" edges="I_0_2_E_boundary_to_I_0_2 I_0_2_to_I_0_1 I_0_1_to_I_0_0 I_0_0_to_I_0_0_N_boundary"/>
    <vehicle id="vehicle_28" type="car" route="route_28" depart="60.17"/>
    <route id="route_29" edges="I_0_0_W_boundary_to_I_0_0 I_0_0_to_I_0_1 I_0_1_to_I_0_2 I_0_2_to_I_1_2 I_1_2_to_I_1_2_E_boundary"/>
    <vehicle id="vehicle_29" type="car" route="route_29" depart="62.50"/>
    <route id="route_30" edges="I_1_2_E_boundary_to_I_1_2 I_1_2_to_I_1_1 I_1_1_to_I_0_1 I_0_1_to_I_0_1_N_boundary"/>
    <vehicle id="vehicle_30" type="car" route="route_30" depart="64.52"/>
    <route id="route_31" edges="I_2_2_S_boundary_to_I_2_2 I_2_2_to_I_2_1 I_2_1_to_I_2_0 I_2_0_to_I_1_0 I_1_0_to_I_1_0_W_boundary"/>
    <vehicle id="vehicle_31" type="car" route="route_31" depart="66.68"/>
    <route id="route_32" edges="I_0_2_N_boundary_to_I_0_2 I_0_2_to_I_1_2 I_1_2_to_I_2_2 I_2_2_to_I_2_2_E_boundary"/>
    <vehicle id="vehicle_32" type="car" route="route_32" depart="68.68"/>
    <route id="route_33" edges="I_0_1_N_boundary_to_I_0_1 I_0_1_to_I_0_2 I_0_2_to_I_1_2 I_1_2_to_I_2_2 I_2_2_to_I_2_2_S_boundary"/>
    <vehicle id="vehicle_33" type="car" route="route_33" depart="71.52"/>
    <route id="route_34" edges="I_0_2_E_boundary_to_I_0_2 I_0_2_to_I_1_2 I_1_2_to_I_2_2 I_2_2_to_I_2_2_E_boundary"/>
    <vehicle id="vehicle_34" type="car" route="route_34" depart="74.02"/>
    <route id="route_35" edges="I_0_1_N_boundary_to_I_0_1 I_0_1_to_I_0_0 I_0_0_to_I_1_0 I_1_0_to_I_2_0 I_2_0_to_I_2_0_S_boundary"/>
    <vehicle id="vehicle_35" type="car" route="route_35" depart="75.52"/>
    <route id="route_36" edges="I_1_0_W_boundary_to_I_1_0 I_1_0_to_I_1_1 I_1_1_to_I_1_2 I_1_2_to_I_1_2_E_boundary"/>
    <vehicle id="vehicle_36" type="car" route="route_36" depart="77.35"/>
    <route id="route_37" edges="I_0_1_N_boundary_to_I_0_1 I_0_1_to_I_0_0 I_0_0_to_I_1_0 I_1_0_to_I_2_0 I_2_0_to_I_2_0_W_boundary"/>
    <vehicle id="vehicle_37" type="car" route="route_37" depart="79.69"/>
    <route id="route_38" edges="I_2_2_S_boundary_to_I_2_2 I_2_2_to_I_2_1 I_2_1_to_I_2_0 I_2_0_to_I_2_0_W_boundary"/>
    <vehicle id="vehicle_38" type="car" route="route_38" depart="82.43"/>
    <route id="route_39" edges="I_1_2_E_boundary_to_I_1_2 I_1_2_to_I_1_1 I_1_1_to_I_1_0 I_1_0_to_I_0_0 I_0_0_to_I_0_0_N_boundary"/>
    <vehicle id="vehicle_39" type="car" route="route_39" depart="83.67"/>
    <route id="route_40" edges="I_1_2_E_boundary_to_I_1_2 I_1_2_to_I_1_1 I_1_1_to_I_1_0 I_1_0_to_I_1_0_W_boundary"/>
    <vehicle id="vehicle_40" type="car" route="route_40" depart="85.89"/>
    <route id="route_41" edges="I_0_1_N_boundary_to_I_0_1 I_0_1_to_I_0_0 I_0_0_to_I_1_0 I_1_0_to_I_1_0_W_boundary"/>
    <vehicle id="vehicle_41" type="car" route="route_41" depart="88.57"/>
    <route id="route_42" edges="I_1_2_E_boundary_to_I_1_2 I_1_2_to_I_1_1 I_1_1_to_I_1_0 I_1_0_to_I_2_0 I_2_0_to_I_2_0_W_boundary"/>
    <vehicle id="vehicle_42" type="car" route="route_42" depart="90.60"/>
    <route id="route_43" edges="I_1_0_W_boundary_to_I_1_0 I_1_0_to_I_2_0 I_2_0_to_I_2_0_S_boundary"/>
    <vehicle id="vehicle_43" type="car" route="route_43" depart="92.53"/>
    <route id="route_44" edges="I_0_2_N_boundary_to_I_0_2 I_0_2_to_I_0_1 I_0_1_to_I_1_1 I_1_1_to_I_2_1 I_2_1_to_I_2_1_S_boundary"/>
    <vehicle id="vehicle_44" type="car" route="route_44" depart="95.39"/>
    <route id="route_45" edges="I_2_0_W_boundary_to_I_2_0 I_2_0_to_I_2_1 I_2_1_to_I_1_1 I_1_1_to_I_0_1 I_0_1_to_I_0_1_N_boundary"/>
    <vehicle id="vehicle_45" type="car" route="route_45" depart="96.62"/>
    <route id="route_46" edges="I_2_1_S_boundary_to_I_2_1 I_2_1_to_I_1_1 I_1_1_to_I_0_1 I_0_1_to_I_0_1_N_boundary"/>
    <vehicle id="vehicle_46" type="car" route="route_46" depart="99.85"/>
    <route id="route_47" edges="I_1_2_E_boundary_to_I_1_2 I_1_2_to_I_1_1 I_1_1_to_I_1_0 I_1_0_to_I_2_0 I_2_0_to_I_2_0_W_boundary"/>
    <vehicle id="vehicle_47" type="car" route="route_47" depart="101.30"/>
    <route id="route_48" edges="I_2_2_E_boundary_to_I_2_2 I_2_2_to_I_1_2 I_1_2_to_I_1_2_E_boundary"/>
    <vehicle id="vehicle_48" type="car" route="route_48" depart="104.32"/>
    <route id="route_49" edges="I_0_2_E_boundary_to_I_0_2 I_0_2_to_I_0_1 I_0_1_to_I_0_0 I_0_0_to_I_1_0 I_1_0_to_I_2_0 I_2_0_to_I_2_0_S_boundary"/>
    <vehicle id="vehicle_49" type="car" route="route_49" depart="105.55"/>
    <route id="route_50" edges="I_0_1_N_boundary_to_I_0_1 I_0_1_to_I_0_0 I_0_0_to_I_1_0 I_1_0_to_I_2_0 I_2_0_to_I_2_0_W_boundary"/>
    <vehicle id="vehicle_50" type="car" route="route_50" depart="107.98"/>
    <route id="route_51" edges="I_0_2_N_boundary_to_I_0_2 I_0_2_to_I_0_1 I_0_1_to_I_1_1 I_1_1_to_I_2_1 I_2_1_to_I_2_1_S_boundary"/>
    <vehicle id="vehicle_51" type="car" route="route_51" depart="110.00"/>
    <route id="route_52" edges="I_0_2_N_boundary_to_I_0_2 I_0_2_to_I_0_1 I_0_1_to_I_0_1_N_boundary"/>
    <vehicle id="vehicle_52" type="car" route="route_52" depart="112.63"/>
    <route id="route_53" edges="I_1_2_E_boundary_to_I_1_2 I_1_2_to_I_1_1 I_1_1_to_I_1_0 I_1_0_to_I_2_0 I_2_0_to_I_2_0_S_boundary"/>
    <vehicle id="vehicle_53" type="car" route="route_53" depart="114.60"/>
    <route id="route_54" edges="I_0_1_N_boundary_to_I_0_1 I_0_1_to_I_0_0 I_0_0_to_I_0_0_N_boundary"/>
    <vehicle id="vehicle_54" type="car" route="route_54" depart="116.76"/>
    <route id="route_55" edges="I_1_0_W_boundary_to_I_1_0 I_1_0_to_I_2_0 I_2_0_to_I_2_0_S_boundary"/>
    <vehicle id="vehicle_55" type="car" route="route_55" depart="119.49"/>
    <route id="route_56" edges="I_2_2_E_boundary_to_I_2_2 I_2_2_to_I_2_1 I_2_1_to_I_2_0 I_2_0_to_I_1_0 I_1_0_to_I_1_0_W_boundary"/>
    <vehicle id="vehicle_56" type="car" route="route_56" depart="120.53"/>
    <route id="route_57" edges="I_2_0_W_boundary_to_I_2_0 I_2_0_to_I_2_1 I_2_1_to_I_2_2 I_2_2_to_I_1_2 I_1_2_to_I_1_2_E_boundary"/>
    <vehicle id="vehicle_57" type="car" route="route_57" depart="123.44"/>
    <route id="route_58" edges="I_0_2_E_boundary_to_I_0_2 I_0_2_to_I_1_2 I_1_2_to_I_1_2_E_boundary"/>
    <vehicle id="vehicle_58" type="car" route="route_58" depart="124.73"/>
    <route id="route_59" edges="I_0_2_E_boundary_to_I_0_2 I_0_2_to_I_0_1 I_0_1_to_I_1_1 I_1_1_to_I_2_1 I_2_1_to_I_2_1_S_boundary"/>
    <vehicle id="vehicle_59" type="car" route="route_59" depart="128.02"/>
    <route id="route_60" edges="I_1_0_W_boundary_to_I_1_0 I_1_0_to_I_2_0 I_2_0_to_I_2_0_W_boundary"/>
    <vehicle id="vehicle_60" type="car" route="route_60" depart="130.01"/>
    <route id="route_61" edges="I_2_0_W_boundary_to_I_2_0 I_2_0_to_I_1_0 I_1_0_to_I_0_0 I_0_0_to_I_0_0_W_boundary"/>
    <vehicle id="vehicle_61" type="car" route="route_61" depart="131.60"/>
    <route id="route_62" edges="I_0_1_N_boundary_to_I_0_1 I_0_1_to_I_0_2 I_0_2_to_I_1_2 I_1_2_to_I_2_2 I_2_2_to_I_2_2_E_boundary"/>
    <vehicle id="vehicle_62" type="car" route="route_62" depart="133.68"/>
    <route id="route_63" edges="I_0_0_N_boundary_to_I_0_0 I_0_0_to_I_0_1 I_0_1_to_I_1_1 I_1_1_to_I_2_1 I_2_1_to_I_2_1_S_boundary"/>
    <vehicle id="vehicle_63" type="car" route="route_63" depart="135.87"/>
    <route id="route_64" edges="I_2_2_S_boundary_to_I_2_2 I_2_2_to_I_2_1 I_2_1_to_I_1_1 I_1_1_to_I_0_1 I_0_1_to_I_0_1_N_boundary"/>
    <vehicle id="vehicle_64" type="car" route="route_64" depart="137.82"/>
    <route id="route_65" edges="I_0_2_N_boundary_to_I_0_2 I_0_2_to_I_0_1 I_0_1_to_I_0_1_N_boundary"/>
    <vehicle id="vehicle_65" type="car" route="route_65" depart="140.79"/>
    <route id="route_66" edges="I_2_2_E_boundary_to_I_2_2 I_2_2_to_I_2_1 I_2_1_to_I_2_0 I_2_0_to_I_1_0 I_1_0_to_I_1_0_W_boundary"/>
    <vehicle id="vehicle_66" type="car" route="route_66" depart="142.99"/>
    <route id="route_67" edges="I_2_0_W_boundary_to_I_2_0 I_2_0_to_I_1_0 I_1_0_to_I_1_0_W_boundary"/>
    <vehicle id="vehicle_67" type="car" route="route_67" depart="144.77"/>
    <route id="route_68" edges="I_0_0_N_boundary_to_I_0_0 I_0_0_to_I_1_0 I_1_0_to_I_2_0 I_2_0_to_I_2_0_S_boundary"/>
    <vehicle id="vehicle_68" type="car" route="route_68" depart="147.43"/>
    <route id="route_69" edges="I_0_1_N_boundary_to_I_0_1 I_0_1_to_I_0_2 I_0_2_to_I_1_2 I_1_2_to_I_2_2 I_2_2_to_I_2_2_E_boundary"/>
    <vehicle id="vehicle_69" type="car" route="route_69" depart="148.70"/>
    <route id="route_70" edges="I_1_2_E_boundary_to_I_1_2 I_1_2_to_I_1_1 I_1_1_to_I_1_0 I_1_0_to_I_2_0 I_2_0_to_I_2_0_W_boundary"/>
    <vehicle id="vehicle_70" type="car" route="route_70" depart="150.85"/>
    <route id="route_71" edges="I_1_2_E_boundary_to_I_1_2 I_1_2_to_I_1_1 I_1_1_to_I_1_0 I_1_0_to_I_1_0_W_boundary"/>
    <vehicle id="vehicle_71" type="car" route="route_71" depart="153.58"/>
    <route id="route_72" edges="I_0_2_N_boundary_to_I_0_2 I_0_2_to_I_0_1 I_0_1_to_I_1_1 I_1_1_to_I_2_1 I_2_1_to_I_2_1_S_boundary"/>
    <vehicle id="vehicle_72" type="car" route="route_72" depart="155.14"/>
    <route id="route_73" edges="I_1_2_E_boundary_to_I_1_2 I_1_2_to_I_1_1 I_1_1_to_I_1_0 I_1_0_to_I_0_0 I_0_0_to_I_0_0_W_boundary"/>
    <vehicle id="vehicle_73" type="car" route="route_73" depart="157.17"/>
    <route id="route_74" edges="I_0_0_W_boundary_to_I_0_0 I_0_0_to_I_0_1 I_0_1_to_I_0_1_N_boundary"/>
    <vehicle id="vehicle_74" type="car" route="route_74" depart="159.26"/>
    <route id="route_75" edges="I_1_2_E_boundary_to_I_1_2 I_1_2_to_I_1_1 I_1_1_to_I_1_0 I_1_0_to_I_0_0 I_0_0_to_I_0_0_W_boundary"/>
    <vehicle id="vehicle_75" type="car" route="route_75" depart="161.66"/>
    <route id="route_76" edges="I_0_2_N_boundary_to_I_0_2 I_0_2_to_I_1_2 I_1_2_to_I_2_2 I_2_2_to_I_2_2_E_boundary"/>
    <vehicle id="vehicle_76" type="car" route="route_76" depart="164.39"/>
    <route id="route_77" edges="I_1_2_E_boundary_to_I_1_2 I_1_2_to_I_1_1 I_1_1_to_I_1_0 I_1_0_to_I_2_0 I_2_0_to_I_2_0_S_boundary"/>
    <vehicle id="vehicle_77" type="car" route="route_77" depart="166.19"/>
    <route id="route_78" edges="I_1_0_W_boundary_to_I_1_0 I_1_0_to_I_1_1 I_1_1_to_I_2_1 I_2_1_to_I_2_1_S_boundary"/>
    <vehicle id="vehicle_78" type="car" route="route_78" depart="168.35"/>
    <route id="route_79" edges="I_0_1_N_boundary_to_I_0_1 I_0_1_to_I_0_0 I_0_0_to_I_1_0 I_1_0_to_I_1_0_W_boundary"/>
    <vehicle id="vehicle_79" type="car" route="route_79" depart="171.11"/>
    <route id="route_80" edges="I_2_1_S_boundary_to_I_2_1 I_2_1_to_I_2_0 I_2_0_to_I_2_0_W_boundary"/>
    <vehicle id="vehicle_80" type="car" route="route_80" depart="172.94"/>
    <route id="route_81" edges="I_1_2_E_boundary_to_I_1_2 I_1_2_to_I_1_1 I_1_1_to_I_2_1 I_2_1_to_I_2_1_S_boundary"/>
    <vehicle id="vehicle_81" type="car" route="route_81" depart="175.57"/>
    <route id="route_82" edges="I_2_2_E_boundary_to_I_2_2 I_2_2_to_I_1_2 I_1_2_to_I_1_2_E_boundary"/>
    <vehicle id="vehicle_82" type="car" route="route_82" depart="177.73"/>
    <route id="route_83" edges="I_0_0_W_boundary_to_I_0_0 I_0_0_to_I_0_1 I_0_1_to_I_0_2 I_0_2_to_I_1_2 I_1_2_to_I_1_2_E_boundary"/>
    <vehicle id="vehicle_83" type="car" route="route_83" depart="178.90"/>
    <route id="route_84" edges="I_0_2_E_boundary_to_I_0_2 I_0_2_to_I_0_1 I_0_1_to_I_1_1 I_1_1_to_I_2_1 I_2_1_to_I_2_1_S_boundary"/>
    <vehicle id="vehicle_84" type="car" route="route_84" depart="181.34"/>
    <route id="route_85" edges="I_0_1_N_boundary_to_I_0_1 I_0_1_to_I_0_2 I_0_2_to_I_0_2_N_boundary"/>
    <vehicle id="vehicle_85" type="car" route="route_85" depart="183.46"/>
    <route id="route_86" edges="I_1_2_E_boundary_to_I_1_2 I_1_2_to_I_1_1 I_1_1_to_I_1_0 I_1_0_to_I_1_0_W_boundary"/>
    <vehicle id="vehicle_86" type="car" route="route_86" depart="186.00"/>
    <route id="route_87" edges="I_2_1_S_boundary_to_I_2_1 I_2_1_to_I_2_0 I_2_0_to_I_2_0_W_boundary"/>
    <vehicle id="vehicle_87" type="car" route="route_87" depart="188.20"/>
    <route id="route_88" edges="I_2_0_W_boundary_to_I_2_0 I_2_0_to_I_2_1 I_2_1_to_I_2_2 I_2_2_to_I_2_2_S_boundary"/>
    <vehicle id="vehicle_88" type="car" route="route_88" depart="189.53"/>
    <route id="route_89" edges="I_2_1_S_boundary_to_I_2_1 I_2_1_to_I_2_0 I_2_0_to_I_2_0_S_boundary"/>
    <vehicle id="vehicle_89" type="car" route="route_89" depart="192.53"/>
    <route id="route_90" edges="I_2_1_S_boundary_to_I_2_1 I_2_1_to_I_2_0 I_2_0_to_I_2_0_S_boundary"/>
    <vehicle id="vehicle_90" type="car" route="route_90" depart="194.65"/>
    <route id="route_91" edges="I_2_1_S_boundary_to_I_2_1 I_2_1_to_I_2_2 I_2_2_to_I_2_2_E_boundary"/>
    <vehicle id="vehicle_91" type="car" route="route_91" depart="197.23"/>
    <route id="route_92" edges="I_0_1_N_boundary_to_I_0_1 I_0_1_to_I_0_0 I_0_0_to_I_0_0_W_boundary"/>
    <vehicle id="vehicle_92" type="car" route="route_92" depart="198.30"/>
    <route id="route_93" edges="I_0_0_N_boundary_to_I_0_0 I_0_0_to_I_0_1 I_0_1_to_I_1_1 I_1_1_to_I_2_1 I_2_1_to_I_2_1_S_boundary"/>
    <vehicle id="vehicle_93" type="car" route="route_93" depart="200.96"/>
    <route id="route_94" edges="I_2_0_S_boundary_to_I_2_0 I_2_0_to_I_2_1 I_2_1_to_I_2_2 I_2_2_to_I_2_2_S_boundary"/>
    <vehicle id="vehicle_94" type="car" route="route_94" depart="203.56"/>
    <route id="route_95" edges="I_2_2_E_boundary_to_I_2_2 I_2_2_to_I_2_1 I_2_1_to_I_1_1 I_1_1_to_I_0_1 I_0_1_to_I_0_1_N_boundary"/>
    <vehicle id="vehicle_95" type="car" route="route_95" depart="205.47"/>
    <route id="route_96" edges="I_0_2_N_boundary_to_I_0_2 I_0_2_to_I_0_1 I_0_1_to_I_0_1_N_boundary"/>
    <vehicle id="vehicle_96" type="car" route="route_96" depart="207.84"/>
    <route id="route_97" edges="I_0_1_N_boundary_to_I_0_1 I_0_1_to_I_1_1 I_1_1_to_I_2_1 I_2_1_to_I_2_1_S_boundary"/>
    <vehicle id="vehicle_97" type="car" route="route_97" depart="209.56"/>
    <route id="route_98" edges="I_2_1_S_boundary_to_I_2_1 I_2_1_to_I_2_2 I_2_2_to_I_1_2 I_1_2_to_I_1_2_E_boundary"/>
    <vehicle id="vehicle_98" type="car" route="route_98" depart="211.46"/>
    <route id="route_99" edges="I_2_2_E_boundary_to_I_2_2 I_2_2_to_I_2_1 I_2_1_to_I_2_0 I_2_0_to_I_2_0_W_boundary"/>
    <vehicle id="vehicle_99" type="car" route="route_99" depart="213.92"/>
    <route id="route_100" edges="I_2_1_S_boundary_to_I_2_1 I_2_1_to_I_2_0 I_2_0_to_I_1_0 I_1_0_to_I_1_0_W_boundary"/>
    <vehicle id="vehicle_100" type="car" route="route_100" depart="216.06"/>
    <route id="route_101" edges="I_0_1_N_boundary_to_I_0_1 I_0_1_to_I_0_0 I_0_0_to_I_1_0 I_1_0_to_I_1_0_W_boundary"/>
    <vehicle id="vehicle_101" type="car" route="route_101" depart="217.87"/>
    <route id="route_102" edges="I_1_2_E_boundary_to_I_1_2 I_1_2_to_I_1_1 I_1_1_to_I_1_0 I_1_0_to_I_0_0 I_0_0_to_I_0_0_W_boundary"/>
    <vehicle id="vehicle_102" type="car" route="route_102" depart="219.90"/>
    <route id="route_103" edges="I_0_0_N_boundary_to_I_0_0 I_0_0_to_I_1_0 I_1_0_to_I_1_0_W_boundary"/>
    <vehicle id="vehicle_103" type="car" route="route_103" depart="222.03"/>
    <route id="route_104" edges="I_2_0_W_boundary_to_I_2_0 I_2_0_to_I_1_0 I_1_0_to_I_1_0_W_boundary"/>
    <vehicle id="vehicle_104" type="car" route="route_104" depart="224.54"/>
    <route id="route_105" edges="I_2_0_W_boundary_to_I_2_0 I_2_0_to_I_2_1 I_2_1_to_I_2_2 I_2_2_to_I_1_2 I_1_2_to_I_0_2 I_0_2_to_I_0_2_E_boundary"/>
    <vehicle id="vehicle_105" type="car" route="route_105" depart="226.97"/>
    <route id="route_106" edges="I_1_2_E_boundary_to_I_1_2 I_1_2_to_I_1_1 I_1_1_to_I_1_0 I_1_0_to_I_1_0_W_boundary"/>
    <vehicle id="vehicle_106" type="car" route="route_106" depart="229.57"/>
    <route id="route_107" edges="I_2_0_W_boundary_to_I_2_0 I_2_0_to_I_1_0 I_1_0_to_I_1_0_W_boundary"/>
    <vehicle id="vehicle_107" type="car" route="route_107" depart="230.98"/>
    <route id="route_108" edges="I_0_1_N_boundary_to_I_0_1 I_0_1_to_I_0_2 I_0_2_to_I_0_2_E_boundary"/>
    <vehicle id="vehicle_108" type="car" route="route_108" depart="233.27"/>
    <route id="route_109" edges="I_1_2_E_boundary_to_I_1_2 I_1_2_to_I_1_1 I_1_1_to_I_0_1 I_0_1_to_I_0_1_N_boundary"/>
    <vehicle id="vehicle_109" type="car" route="route_109" depart="235.60"/>
    <route id="route_110" edges="I_0_1_N_boundary_to_I_0_1 I_0_1_to_I_0_2 I_0_2_to_I_0_2_E_boundary"/>
    <vehicle id="vehicle_110" type="car" route="route_110" depart="237.19"/>
    <route id="route_111" edges="I_2_0_S_boundary_to_I_2_0 I_2_0_to_I_2_1 I_2_1_to_I_2_1_S_boundary"/>
    <vehicle id="vehicle_111" type="car" route="route_111" depart="239.94"/>
    <route id="route_112" edges="I_1_0_W_boundary_to_I_1_0 I_1_0_to_I_2_0 I_2_0_to_I_2_0_S_boundary"/>
    <vehicle id="vehicle_112" type="car" route="route_112" depart="242.11"/>
    <route id="route_113" edges="I_1_2_E_boundary_to_I_1_2 I_1_2_to_I_1_1 I_1_1_to_I_1_0 I_1_0_to_I_1_0_W_boundary"/>
    <vehicle id="vehicle_113" type="car" route="route_113" depart="243.60"/>
    <route id="route_114" edges="I_0_2_N_boundary_to_I_0_2 I_0_2_to_I_0_1 I_0_1_to_I_0_0 I_0_0_to_I_1_0 I_1_0_to_I_1_0_W_boundary"/>
    <vehicle id="vehicle_114" type="car" route="route_114" depart="246.38"/>
    <route id="route_115" edges="I_0_2_E_boundary_to_I_0_2 I_0_2_to_I_0_1 I_0_1_to_I_0_0 I_0_0_to_I_0_0_W_boundary"/>
    <vehicle id="vehicle_115" type="car" route="route_115" depart="247.94"/>
    <route id="route_116" edges="I_1_2_E_boundary_to_I_1_2 I_1_2_to_I_1_1 I_1_1_to_I_1_0 I_1_0_to_I_2_0 I_2_0_to_I_2_0_S_boundary"/>
    <vehicle id="vehicle_116" type="car" route="route_116" depart="250.89"/>
    <route id="route_117" edges="I_2_2_S_boundary_to_I_2_2 I_2_2_to_I_2_1 I_2_1_to_I_2_1_S_boundary"/>
    <vehicle id="vehicle_117" type="car" route="route_117" depart="252.81"/>
    <route id="route_118" edges="I_1_0_W_boundary_to_I_1_0 I_1_0_to_I_0_0 I_0_0_to_I_0_0_W_boundary"/>
    <vehicle id="vehicle_118" type="car" route="route_118" depart="254.48"/>
    <route id="route_119" edges="I_1_0_W_boundary_to_I_1_0 I_1_0_to_I_1_1 I_1_1_to_I_0_1 I_0_1_to_I_0_1_N_boundary"/>
    <vehicle id="vehicle_119" type="car" route="route_119" depart="257.73"/>
    <route id="route_120" edges="I_0_1_N_boundary_to_I_0_1 I_0_1_to_I_0_2 I_0_2_to_I_0_2_E_boundary"/>
    <vehicle id="vehicle_120" type="car" route="route_120" depart="259.33"/>
    <route id="route_121" edges="I_0_2_N_boundary_to_I_0_2 I_0_2_to_I_0_1 I_0_1_to_I_0_0 I_0_0_to_I_1_0 I_1_0_to_I_2_0 I_2_0_to_I_2_0_W_boundary"/>
    <vehicle id="vehicle_121" type="car" route="route_121" depart="261.43"/>
    <route id="route_122" edges="I_1_2_E_boundary_to_I_1_2 I_1_2_to_I_1_1 I_1_1_to_I_1_0 I_1_0_to_I_2_0 I_2_0_to_I_2_0_S_boundary"/>
    <vehicle id="vehicle_122" type="car" route="route_122" depart="264.22"/>
    <route id="route_123" edges="I_2_2_S_boundary_to_I_2_2 I_2_2_to_I_2_1 I_2_1_to_I_2_0 I_2_0_to_I_1_0 I_1_0_to_I_0_0 I_0_0_to_I_0_0_N_boundary"/>
    <vehicle id="vehicle_123" type="car" route="route_123" depart="266.41"/>
    <route id="route_124" edges="I_1_2_E_boundary_to_I_1_2 I_1_2_to_I_1_1 I_1_1_to_I_0_1 I_0_1_to_I_0_1_N_boundary"/>
    <vehicle id="vehicle_124" type="car" route="route_124" depart="267.56"/>
    <route id="route_125" edges="I_2_2_E_boundary_to_I_2_2 I_2_2_to_I_2_1 I_2_1_to_I_2_1_S_boundary"/>
    <vehicle id="vehicle_125" type="car" route="route_125" depart="269.58"/>
    <route id="route_126" edges="I_1_0_W_boundary_to_I_1_0 I_1_0_to_I_1_1 I_1_1_to_I_1_2 I_1_2_to_I_2_2 I_2_2_to_I_2_2_E_boundary"/>
    <vehicle id="vehicle_126" type="car" route="route_126" depart="271.94"/>
    <route id="route_127" edges="I_0_2_E_boundary_to_I_0_2 I_0_2_to_I_0_1 I_0_1_to_I_0_1_N_boundary"/>
    <vehicle id="vehicle_127" type="car" route="route_127" depart="274.62"/>
    <route id="route_128" edges="I_1_2_E_boundary_to_I_1_2 I_1_2_to_I_1_1 I_1_1_to_I_1_0 I_1_0_to_I_0_0 I_0_0_to_I_0_0_N_boundary"/>
    <vehicle id="vehicle_128" type="car" route="route_128" depart="276.77"/>
    <route id="route_129" edges="I_1_2_E_boundary_to_I_1_2 I_1_2_to_I_1_1 I_1_1_to_I_2_1 I_2_1_to_I_2_1_S_boundary"/>
    <vehicle id="vehicle_129" type="car" route="route_129" depart="279.21"/>
    <route id="route_130" edges="I_0_0_W_boundary_to_I_0_0 I_0_0_to_I_0_1 I_0_1_to_I_1_1 I_1_1_to_I_2_1 I_2_1_to_I_2_1_S_boundary"/>
    <vehicle id="vehicle_130" type="car" route="route_130" depart="281.23"/>
    <route id="route_131" edges="I_2_1_S_boundary_to_I_2_1 I_2_1_to_I_2_2 I_2_2_to_I_1_2 I_1_2_to_I_1_2_E_boundary"/>
    <vehicle id="vehicle_131" type="car" route="route_131" depart="282.54"/>
    <route id="route_132" edges="I_0_1_N_boundary_to_I_0_1 I_0_1_to_I_0_2 I_0_2_to_I_1_2 I_1_2_to_I_1_2_E_boundary"/>
    <vehicle id="vehicle_132" type="car" route="route_132" depart="285.28"/>
    <route id="route_133" edges="I_0_2_N_boundary_to_I_0_2 I_0_2_to_I_0_1 I_0_1_to_I_1_1 I_1_1_to_I_2_1 I_2_1_to_I_2_1_S_boundary"/>
    <vehicle id="vehicle_133" type="car" route="route_133" depart="286.86"/>
    <route id="route_134" edges="I_2_0_W_boundary_to_I_2_0 I_2_0_to_I_2_1 I_2_1_to_I_2_1_S_boundary"/>
    <vehicle id="vehicle_134" type="car" route="route_134" depart="289.52"/>
    <route id="route_135" edges="I_2_1_S_boundary_to_I_2_1 I_2_1_to_I_2_2 I_2_2_to_I_1_2 I_1_2_to_I_0_2 I_0_2_to_I_0_2_E_boundary"/>
    <vehicle id="vehicle_135" type="car" route="route_135" depart="292.30"/>
    <route id="route_136" edges="I_0_0_N_boundary_to_I_0_0 I_0_0_to_I_1_0 I_1_0_to_I_1_0_W_boundary"/>
    <vehicle id="vehicle_136" type="car" route="route_136" depart="293.87"/>
    <route id="route_137" edges="I_1_2_E_boundary_to_I_1_2 I_1_2_to_I_2_2 I_2_2_to_I_2_2_E_boundary"/>
    <vehicle id="vehicle_137" type="car" route="route_137" depart="296.32"/>
    <route id="route_138" edges="I_2_1_S_boundary_to_I_2_1 I_2_1_to_I_2_2 I_2_2_to_I_2_2_S_boundary"/>
    <vehicle id="vehicle_138" type="car" route="route_138" depart="298.20"/>
    <route id="route_139" edges="I_0_1_N_boundary_to_I_0_1 I_0_1_to_I_0_2 I_0_2_to_I_1_2 I_1_2_to_I_2_2 I_2_2_to_I_2_2_E_boundary"/>
    <vehicle id="vehicle_139" type="car" route="route_139" depart="300.52"/>
    <route id="route_140" edges="I_0_2_N_boundary_to_I_0_2 I_0_2_to_I_0_1 I_0_1_to_I_0_0 I_0_0_to_I_1_0 I_1_0_to_I_1_0_W_boundary"/>
    <vehicle id="vehicle_140" type="car" route="route_140" depart="302.86"/>
    <route id="route_141" edges="I_0_1_N_boundary_to_I_0_1 I_0_1_to_I_0_2 I_0_2_to_I_1_2 I_1_2_to_I_1_2_E_boundary"/>
    <vehicle id="vehicle_141" type="car" route="route_141" depart="304.51"/>
    <route id="route_142" edges="I_2_1_S_boundary_to_I_2_1 I_2_1_to_I_2_2 I_2_2_to_I_2_2_S_boundary"/>
    <vehicle id="vehicle_142" type="car" route="route_142" depart="306.92"/>
    <route id="route_143" edges="I_1_2_E_boundary_to_I_1_2 I_1_2_to_I_2_2 I_2_2_to_I_2_2_S_boundary"/>
    <vehicle id="vehicle_143" type="car" route="route_143" depart="309.34"/>
    <route id="route_144" edges="I_2_0_S_boundary_to_I_2_0 I_2_0_to_I_2_1 I_2_1_to_I_1_1 I_1_1_to_I_0_1 I_0_1_to_I_0_1_N_boundary"/>
    <vehicle id="vehicle_144" type="car" route="route_144" depart="311.51"/>
    <route id="route_145" edges="I_0_2_N_boundary_to_I_0_2 I_0_2_to_I_1_2 I_1_2_to_I_2_2 I_2_2_to_I_2_2_E_boundary"/>
    <vehicle id="vehicle_145" type="car" route="route_145" depart="313.96"/>
    <route id="route_146" edges="I_0_2_E_boundary_to_I_0_2 I_0_2_to_I_0_1 I_0_1_to_I_0_0 I_0_0_to_I_0_0_W_boundary"/>
    <vehicle id="vehicle_146" type="car" route="route_146" depart="315.46"/>
    <route id="route_147" edges="I_0_2_N_boundary_to_I_0_2 I_0_2_to_I_0_1 I_0_1_to_I_0_0 I_0_0_to_I_1_0 I_1_0_to_I_1_0_W_boundary"/>
    <vehicle id="vehicle_147" type="car" route="route_147" depart="317.91"/>
    <route id="route_148" edges="I_1_2_E_boundary_to_I_1_2 I_1_2_to_I_1_1 I_1_1_to_I_2_1 I_2_1_to_I_2_1_S_boundary"/>
    <vehicle id="vehicle_148" type="car" route="route_148" depart="319.23"/>
    <route id="route_149" edges="I_2_1_S_boundary_to_I_2_1 I_2_1_to_I_2_2 I_2_2_to_I_2_2_S_boundary"/>
    <vehicle id="vehicle_149" type="car" route="route_149" depart="322.34"/>
    <route id="route_150" edges="I_1_2_E_boundary_to_I_1_2 I_1_2_to_I_1_1 I_1_1_to_I_1_0 I_1_0_to_I_0_0 I_0_0_to_I_0_0_N_boundary"/>
    <vehicle id="vehicle_150" type="car" route="route_150" depart="324.54"/>
    <route id="route_151" edges="I_2_0_S_boundary_to_I_2_0 I_2_0_to_I_2_1 I_2_1_to_I_2_1_S_boundary"/>
    <vehicle id="vehicle_151" type="car" route="route_151" depart="326.85"/>
    <route id="route_152" edges="I_2_2_S_boundary_to_I_2_2 I_2_2_to_I_2_1 I_2_1_to_I_2_1_S_boundary"/>