<?xml version="1.0" encoding="UTF-8"?>
<routes xmlns:xsi="http://www.w3.org/2001/XMLSchema-instance" xsi:noNamespaceSchemaLocation="http://sumo.dlr.de/xsd/routes_file.xsd">

    <vType id="car" accel="2.6" decel="4.5" sigma="0.5" length="5" minGap="2.5" maxSpeed="13.89" guiShape="passenger"/>

    <route id="route_0" edges="I_0_1_N_boundary_to_I_0_1 I_0_1_to_I_0_2 I_0_2_to_I_1_2 I_1_2_to_I_2_2 I_2_2_to_I_2_2_S_boundary"/>
    <vehicle id="vehicle_0" type="car" route="route_0" depart="0.00"/>
    <route id="route_1" edges="I_2_0_S_boundary_to_I_2_0 I_2_0_to_I_2_1 I_2_1_to_I_2_1_S_boundary"/>
    <vehicle id="vehicle_1" type="car" route="route_1" depart="31.75"/>
    <route id="route_2" edges="I_2_2_S_boundary_to_I_2_2 I_2_2_to_I_2_1 I_2_1_to_I_2_0 I_2_0_to_I_2_0_W_boundary"/>
    <vehicle id="vehicle_2" type="car" route="route_2" depart="82.18"/>
    <route id="route_3" edges="I_2_2_S_boundary_to_I_2_2 I_2_2_to_I_1_2 I_1_2_to_I_0_2 I_0_2_to_I_0_2_E_boundary"/>
    <vehicle id="vehicle_3" type="car" route="route_3" depart="117.69"/>
    <route id="route_4" edges="I_2_0_S_boundary_to_I_2_0 I_2_0_to_I_2_1 I_2_1_to_I_1_1 I_1_1_to_I_0_1 I_0_1_to_I_0_1_N_boundary"/>
    <vehicle id="vehicle_4" type="car" route="route_4" depart="146.56"/>
    <route id="route_5" edges="I_1_0_W_boundary_to_I_1_0 I_1_0_to_I_2_0 I_2_0_to_I_2_0_W_boundary"/>
    <vehicle id="vehicle_5" type="car" route="route_5" depart="181.26"/>
    <route id="route_6" edges="I_0_2_N_boundary_to_I_0_2 I_0_2_to_I_0_1 I_0_1_to_I_1_1 I_1_1_to_I_2_1 I_2_1_to_I_2_1_S_boundary"/>
    <vehicle id="vehicle_6" type="car" route="route_6" depart="216.61"/>
    <route id="route_7" edges="I_1_2_E_boundary_to_I_1_2 I_1_2_to_I_2_2 I_2_2_to_I_2_2_E_boundary"/>
    <vehicle id="vehicle_7" type="car" route="route_7" depart="257.94"/>
    <route id="route_8" edges="I_0_2_E_boundary_to_I_0_2 I_0_2_to_I_0_1 I_0_1_to_I_0_0 I_0_0_to_I_1_0 I_1_0_to_I_2_0 I_2_0_to_I_2_0_S_boundary"/>
    <vehicle id="vehicle_8" type="car" route="route_8" depart="292.90"/>
    <route id="route_9" edges="I_0_0_N_boundary_to_I_0_0 I_0_0_to_I_0_1 I_0_1_to_I_0_1_N_boundary"/>
    <vehicle id="vehicle_9" type="car" route="route_9" depart="319.34"/>
    <route id="route_10" edges="I_2_2_S_boundary_to_I_2_2 I_2_2_to_I_2_1 I_2_1_to_I_2_1_S_boundary"/>
    <vehicle id="vehicle_10" type="car" route="route_10" depart="358.75"/>
    <route id="route_11" edges="I_0_0_N_boundary_to_I_0_0 I_0_0_to_I_1_0 I_1_0_to_I_2_0 I_2_0_to_I_2_0_S_boundary"/>
    <vehicle id="vehicle_11" type="car" route="route_11" depart="399.66"/>
    <route id="route_12" edges="I_1_0_W_boundary_to_I_1_0 I_1_0_to_I_1_1 I_1_1_to_I_0_1 I_0_1_to_I_0_1_N_boundary"/>
    <vehicle id="vehicle_12" type="car" route="route_12" depart="423.91"/>
    <route id="route_13" edges="I_1_0_W_boundary_to_I_1_0 I_1_0_to_I_2_0 I_2_0_to_I_2_0_W_boundary"/>
    <vehicle id="vehicle_13" type="car" route="route_13" depart="471.13"/>
    <route id="route_14" edges="I_1_2_E_boundary_to_I_1_2 I_1_2_to_I_1_1 I_1_1_to_I_2_1 I_2_1_to_I_2_1_S_boundary"/>
    <vehicle id="vehicle_14" type="car" route="route_14" depart="509.09"/>
    <route id="route_15" edges="I_1_2_E_boundary_to_I_1_2 I_1_2_to_I_1_1 I_1_1_to_I_0_1 I_0_1_to_I_0_1_N_boundary"/>
    <vehicle id="vehicle_15" type="car" route="route_15" depart="550.75"/>
    <route id="route_16" edges="I_0_0_N_boundary_to_I_0_0 I_0_0_to_I_0_1 I_0_1_to_I_0_2 I_0_2_to_I_0_2_E_boundary"/>
    <vehicle id="vehicle_16" type="car" route="route_16" depart="565.21"/>
    <route id="route_17" edges="I_1_0_W_boundary_to_I_1_0 I_1_0_to_I_1_1 I_1_1_to_I_1_2 I_1_2_to_I_2_2 I_2_2_to_I_2_2_E_boundary"/>
    <vehicle id="vehicle_17" type="car" route="route_17" depart="601.53"/>
    <route id="route_18" edges="I_0_0_W_boundary_to_I_0_0 I_0_0_to_I_0_1 I_0_1_to_I_0_2 I_0_2_to_I_1_2 I_1_2_to_I_2_2 I_2_2_to_I_2_2_S_boundary"/>
    <vehicle id="vehicle_18" type="car" route="route_18" depart="658.30"/>
    <route id="route_19" edges="I_0_2_E_boundary_to_I_0_2 I_0_2_to_I_0_1 I_0_1_to_I_0_0 I_0_0_to_I_1_0 I_1_0_to_I_1_0_W_boundary"/>
    <vehicle id="vehicle_19" type="car" route="route_19" depart="681.71"/>
    <route id="route_20" edges="I_0_0_N_boundary_to_I_0_0 I_0_0_to_I_0_1 I_0_1_to_I_1_1 I_1_1_to_I_2_1 I_2_1_to_I_2_1_S_boundary"/>
    <vehicle id="vehicle_20" type="car" route="route_20" depart="726.38"/>
    <route id="route_21" edges="I_1_2_E_boundary_to_I_1_2 I_1_2_to_I_1_1 I_1_1_to_I_2_1 I_2_1_to_I_2_1_S_boundary"/>
    <vehicle id="vehicle_21" type="car" route="route_21" depart="750.12"/>
    <route id="route_22" edges="I_2_0_W_boundary_to_I_2_0 I_2_0_to_I_2_1 I_2_1_to_I_2_2 I_2_2_to_I_1_2 I_1_2_to_I_0_2 I_0_2_to_I_0_2_E_boundary"/>
    <vehicle id="vehicle_22" type="car" route="route_22" depart="792.42"/>
    <route id="route_23" edges="I_2_0_S_boundary_to_I_2_0 I_2_0_to_I_1_0 I_1_0_to_I_0_0 I_0_0_to_I_0_0_W_boundary"/>
    <vehicle id="vehicle_23" type="car" route="route_23" depart="838.51"/>
    <route id="route_24" edges="I_2_2_E_boundary_to_I_2_2 I_2_2_to_I_2_1 I_2_1_to_I_2_0 I_2_0_to_I_1_0 I_1_0_to_I_1_0_W_boundary"/>
    <vehicle id="vehicle_24" type="car" route="route_24" depart="855.59"/>
    <route id="route_25" edges="I_2_2_E_boundary_to_I_2_2 I_2_2_to_I_1_2 I_1_2_to_I_1_2_E_boundary"/>
    <vehicle id="vehicle_25" type="car" route="route_25" depart="894.44"/>
    <route id="route_26" edges="I_0_0_N_boundary_to_I_0_0 I_0_0_to_I_0_1 I_0_1_to_I_1_1 I_1_1_to_I_2_1 I_2_1_to_I_2_1_S_boundary"/>
    <vehicle id="vehicle_26" type="car" route="route_26" depart="931.81"/>
    <route id="route_27" edges="I_0_1_N_boundary_to_I_0_1 I_0_1_to_I_0_2 I_0_2_to_I_1_2 I_1_2_to_I_2_2 I_2_2_to_I_2_2_S_boundary"/>
    <vehicle id="vehicle_27" type="car" route="route_27" depart="979.68"/>
    <route id="route_28" edges="I_0_2_E_boundary_to_I_0_2 I_0_2_to_I_1_2 I_1_2_to_I_1_2_E_boundary"/>
    <vehicle id="vehicle_28" type="car" route="route_28" depart="998.51"/>
    <route id="route_29" edges="I_0_2_N_boundary_to_I_0_2 I_0_2_to_I_0_1 I_0_1_to_I_0_0 I_0_0_to_I_1_0 I_1_0_to_I_2_0 I_2_0_to_I_2_0_S_boundary"/>
    <vehicle id="vehicle_29" type="car" route="route_29" depart="1037.58"/>
    <route id="route_30" edges="I_0_2_N_boundary_to_I_0_2 I_0_2_to_I_0_1 I_0_1_to_I_1_1 I_1_1_to_I_2_1 I_2_1_to_I_2_1_S_boundary"/>
    <vehicle id="vehicle_30" type="car" route="route_30" depart="1081.34"/>
    <route id="route_31" edges="I_1_2_E_boundary_to_I_1_2 I_1_2_to_I_1_1 I_1_1_to_I_2_1 I_2_1_to_I_2_1_S_boundary"/>
    <vehicle id="vehicle_31" type="car" route="route_31" depart="1114.46"/>
    <route id="route_32" edges="I_1_0_W_boundary_to_I_1_0 I_1_0_to_I_1_1 I_1_1_to_I_1_2 I_1_2_to_I_2_2 I_2_2_to_I_2_2_E_boundary"/>
    <vehicle id="vehicle_32" type="car" route="route_32" depart="1148.86"/>
    <route id="route_33" edges="I_2_1_S_boundary_to_I_2_1 I_2_1_to_I_2_0 I_2_0_to_I_2_0_S_boundary"/>
    <vehicle id="vehicle_33" type="car" route="route_33" depart="1189.16"/>
    <route id="route_34" edges="I_0_2_E_boundary_to_I_0_2 I_0_2_to_I_1_2 I_1_2_to_I_2_2 I_2_2_to_I_2_2_S_boundary"/>
    <vehicle id="vehicle_34" type="car" route="route_34" depart="1228.81"/>
    <route id="route_35" edges="I_0_2_N_boundary_to_I_0_2 I_0_2_to_I_1_2 I_1_2_to_I_1_2_E_boundary"/>
    <vehicle id="vehicle_35" type="car" route="route_35" depart="1266.13"/>
    <route id="route_36" edges="I_2_0_W_boundary_to_I_2_0 I_2_0_to_I_2_1 I_2_1_to_I_2_2 I_2_2_to_I_2_2_S_boundary"/>
    <vehicle id="vehicle_36" type="car" route="route_36" depart="1293.99"/>
    <route id="route_37" edges="I_1_0_W_boundary_to_I_1_0 I_1_0_to_I_1_1 I_1_1_to_I_1_2 I_1_2_to_I_2_2 I_2_2_to_I_2_2_S_boundary"/>
    <vehicle id="vehicle_37" type="car" route="route_37" depart="1332.56"/>
    <route id="route_38" edges="I_2_2_S_boundary_to_I_2_2 I_2_2_to_I_2_1 I_2_1_to_I_2_0 I_2_0_to_I_1_0 I_1_0_to_I_0_0 I_0_0_to_I_0_0_N_boundary"/>
    <vehicle id="vehicle_38" type="car" route="route_38" depart="1376.30"/>
    <route id="route_39" edges="I_2_0_W_boundary_to_I_2_0 I_2_0_to_I_2_1 I_2_1_to_I_2_1_S_boundary"/>
    <vehicle id="vehicle_39" type="car" route="route_39" depart="1408.22"/>
    <route id="route_40" edges="I_0_1_N_boundary_to_I_0_1 I_0_1_to_I_1_1 I_1_1_to_I_2_1 I_2_1_to_I_2_1_S_boundary"/>
    <vehicle id="vehicle_40" type="car" route="route_40" depart="1438.29"/>
    <route id="route_41" edges="I_0_1_N_boundary_to_I_0_1 I_0_1_to_I_0_0 I_0_0_to_I_1_0 I_1_0_to_I_2_0 I_2_0_to_I_2_0_W_boundary"/>
    <vehicle id="vehicle_41" type="car" route="route_41" depart="1477.80"/>
    <route id="route_42" edges="I_0_1_N_boundary_to_I_0_1 I_0_1_to_I_0_2 I_0_2_to_I_0_2_N_boundary"/>
    <vehicle id="vehicle_42" type="car" route="route_42" depart="1516.44"/>
    <route id="route_43" edges="I_2_1_S_boundary_to_I_2_1 I_2_1_to_I_1_1 I_1_1_to_I_0_1 I_0_1_to_I_0_1_N_boundary"/>
    <vehicle id="vehicle_43" type="car" route="route_43" depart="1555.34"/>
    <route id="route_44" edges="I_0_1_N_boundary_to_I_0_1 I_0_1_to_I_0_2 I_0_2_to_I_0_2_N_boundary"/>
    <vehicle id="vehicle_44" type="car" route="route_44" depart="1580.32"/>
    <route id="route_45" edges="I_2_2_E_boundary_to_I_2_2 I_2_2_to_I_1_2 I_1_2_to_I_0_2 I_0_2_to_I_0_2_E_boundary"/>
    <vehicle id="vehicle_45" type="car" route="route_45" depart="1612.62"/>
    <route id="route_46" edges="I_0_1_N_boundary_to_I_0_1 I_0_1_to_I_0_2 I_0_2_to_I_1_2 I_1_2_to_I_1_2_E_boundary"/>
    <vehicle id="vehicle_46" type="car" route="route_46" depart="1648.55"/>
    <route id="route_47" edges="I_1_0_W_boundary_to_I_1_0 I_1_0_to_I_2_0 I_2_0_to_I_2_0_W_boundary"/>
    <vehicle id="vehicle_47" type="car" route="route_47" depart="1689.57"/>
    <route id="route_48" edges="I_1_0_W_boundary_to_I_1_0 I_1_0_to_I_0_0 I_0_0_to_I_0_0_N_boundary"/>
    <vehicle id="vehicle_48" type="car" route="route_48" depart="1727.67"/>
    <route id="route_49" edges="I_0_2_N_boundary_to_I_0_2 I_0_2_to_I_1_2 I_1_2_to_I_2_2 I_2_2_to_I_2_2_E_boundary"/>
    <vehicle id="vehicle_49" type="car" route="route_49" depart="1768.78"/>
    <route id="route_50" edges="I_0_0_W_boundary_to_I_0_0 I_0_0_to_I_1_0 I_1_0_to_I_1_0_W_boundary"/>
    <vehicle id="vehicle_50" type="car" route="route_50" depart="1801.94"/>
    <route id="route_51" edges="I_0_2_E_boundary_to_I_0_2 I_0_2_to_I_0_1 I_0_1_to_I_1_1 I_1_1_to_I_2_1 I_2_1_to_I_2_1_S_boundary"/>
    <vehicle id="vehicle_51" type="car" route="route_51" depart="1842.32"/>
    <route id="route_52" edges="I_1_0_W_boundary_to_I_1_0 I_1_0_to_I_1_1 I_1_1_to_I_1_2 I_1_2_to_I_1_2_E_boundary"/>
    <vehicle id="vehicle_52" type="car" route="route_52" depart="1875.73"/>
    <route id="route_53" edges="I_2_1_S_boundary_to_I_2_1 I_2_1_to_I_2_2 I_2_2_to_I_1_2 I_1_2_to_I_1_2_E_boundary"/>
    <vehicle id="vehicle_53" type="car" route="route_53" depart="1918.26"/>
    <route id="route_54" edges="I_0_1_N_boundary_to_I_0_1 I_0_1_to_I_0_2 I_0_2_to_I_1_2 I_1_2_to_I_1_2_E_boundary"/>
    <vehicle id="vehicle_54" type="car" route="route_54" depart="1934.48"/>
    <route id="route_55" edges="I_0_0_N_boundary_to_I_0_0 I_0_0_to_I_1_0 I_1_0_to_I_2_0 I_2_0_to_I_2_0_S_boundary"/>
    <vehicle id="vehicle_55" type="car" route="route_55" depart="1976.46"/>
    <route id="route_56" edges="I_2_1_S_boundary_to_I_2_1 I_2_1_to_I_2_2 I_2_2_to_I_1_2 I_1_2_to_I_1_2_E_boundary"/>
    <vehicle id="vehicle_56" type="car" route="route_56" depart="2005.94"/>
    <route id="route_57" edges="I_1_2_E_boundary_to_I_1_2 I_1_2_to_I_2_2 I_2_2_to_I_2_2_S_boundary"/>
    <vehicle id="vehicle_57" type="car" route="route_57" depart="2045.49"/>
    <route id="route_58" edges="I_0_0_W_boundary_to_I_0_0 I_0_0_to_I_0_1 I_0_1_to_I_0_1_N_boundary"/>
    <vehicle id="vehicle_58" type="car" route="route_58" depart="2083.69"/>
    <route id="route_59" edges="I_0_1_N_boundary_to_I_0_1 I_0_1_to_I_0_2 I_0_2_to_I_0_2_N_boundary"/>
    <vehicle id="vehicle_59" type="car" route="route_59" depart="2131.95"/>
    <route id="route_60" edges="I_2_0_S_boundary_to_I_2_0 I_2_0_to_I_2_1 I_2_1_to_I_2_1_S_boundary"/>
    <vehicle id="vehicle_60" type="car" route="route_60" depart="2157.72"/>
    <route id="route_61" edges="I_0_0_W_boundary_to_I_0_0 I_0_0_to_I_1_0 I_1_0_to_I_1_0_W_boundary"/>
    <vehicle id="vehicle_61" type="car" route="route_61" depart="2186.10"/>
    <route id="route_62" edges="I_1_2_E_boundary_to_I_1_2 I_1_2_to_I_1_1 I_1_1_to_I_2_1 I_2_1_to_I_2_1_S_boundary"/>
    <vehicle id="vehicle_62" type="car" route="route_62" depart="2229.89"/>
    <route id="route_63" edges="I_2_1_S_boundary_to_I_2_1 I_2_1_to_I_1_1 I_1_1_to_I_0_1 I_0_1_to_I_0_1_N_boundary"/>
    <vehicle id="vehicle_63" type="car" route="route_63" depart="2270.47"/>
    <route id="route_64" edges="I_0_2_N_boundary_to_I_0_2 I_0_2_to_I_0_1 I_0_1_to_I_0_0 I_0_0_to_I_1_0 I_1_0_to_I_1_0_W_boundary"/>
    <vehicle id="vehicle_64" type="car" route="route_64" depart="2313.05"/>
    <route id="route_65" edges="I_2_1_S_boundary_to_I_2_1 I_2_1_to_I_1_1 I_1_1_to_I_0_1 I_0_1_to_I_0_1_N_boundary"/>
    <vehicle id="vehicle_65" type="car" route="route_65" depart="2340.08"/>
    <route id="route_66" edges="I_2_0_W_boundary_to_I_2_0 I_2_0_to_I_2_1 I_2_1_to_I_2_2 I_2_2_to_I_2_2_S_boundary"/>
    <vehicle id="vehicle_66" type="car" route="route_66" depart="2370.50"/>
    <route id="route_67" edges="I_1_0_W_boundary_to_I_1_0 I_1_0_to_I_2_0 I_2_0_to_I_2_0_S_boundary"/>
    <vehicle id="vehicle_67" type="car" route="route_67" depart="2414.74"/>
    <route id="route_68" edges="I_0_2_N_boundary_to_I_0_2 I_0_2_to_I_0_1 I_0_1_to_I_0_0 I_0_0_to_I_0_0_N_boundary"/>
    <vehicle id="vehicle_68" type="car" route="route_68" depart="2443.00"/>
    <route id="route_69" edges="I_0_2_E_boundary_to_I_0_2 I_0_2_to_I_0_1 I_0_1_to_I_0_0 I_0_0_to_I_1_0 I_1_0_to_I_1_0_W_boundary"/>
    <vehicle id="vehicle_69" type="car" route="route_69" depart="2489.02"/>
    <route id="route_70" edges="I_2_0_W_boundary_to_I_2_0 I_2_0_to_I_1_0 I_1_0_to_I_1_0_W_boundary"/>
    <vehicle id="vehicle_70" type="car" route="route_70" depart="2521.11"/>
    <route id="route_71" edges="I_2_1_S_boundary_to_I_2_1 I_2_1_to_I_2_2 I_2_2_to_I_1_2 I_1_2_to_I_1_2_E_boundary"/>
    <vehicle id="vehicle_71" type="car" route="route_71" depart="2558.19"/>
    <route id="route_72" edges="I_2_0_W_boundary_to_I_2_0 I_2_0_to_I_2_1 I_2_1_to_I_2_2 I_2_2_to_I_1_2 I_1_2_to_I_0_2 I_0_2_to_I_0_2_N_boundary"/>
    <vehicle id="vehicle_72" type="car" route="route_72" depart="2589.91"/>
    <route id="route_73" edges="I_0_0_W_boundary_to_I_0_0 I_0_0_to_I_1_0 I_1_0_to_I_1_0_W_boundary"/>
    <vehicle id="vehicle_73" type="car" route="route_73" depart="2617.76"/>
    <route id="route_74" edges="I_1_2_E_boundary_to_I_1_2 I_1_2_to_I_1_1 I_1_1_to_I_1_0 I_1_0_to_I_0_0 I_0_0_to_I_0_0_W_boundary"/>
    <vehicle id="vehicle_74" type="car" route="route_74" depart="2657.62"/>
    <route id="route_75" edges="I_0_0_W_boundary_to_I_0_0 I_0_0_to_I_1_0 I_1_0_to_I_1_0_W_boundary"/>
    <vehicle id="vehicle_75" type="car" route="route_75" depart="2695.40"/>
    <route id="route_76" edges="I_0_1_N_boundary_to_I_0_1 I_0_1_to_I_0_2 I_0_2_to_I_0_2_N_boundary"/>
    <vehicle id="vehicle_76" type="car" route="route_76" depart="2727.93"/>
    <route id="route_77" edges="I_2_1_S_boundary_to_I_2_1 I_2_1_to_I_2_0 I_2_0_to_I_1_0 I_1_0_to_I_0_0 I_0_0_to_I_0_0_W_boundary"/>
    <vehicle id="vehicle_77" type="car" route="route_77" depart="2770.10"/>
    <route id="route_78" edges="I_2_0_S_boundary_to_I_2_0 I_2_0_to_I_2_1 I_2_1_to_I_2_2 I_2_2_to_I_1_2 I_1_2_to_I_0_2 I_0_2_to_I_0_2_N_boundary"/>
    <vehicle id="vehicle_78" type="car" route="route_78" depart="2816.88"/>
    <route id="route_79" edges="I_0_2_N_boundary_to_I_0_2 I_0_2_to_I_0_1 I_0_1_to_I_0_0 I_0_0_to_I_0_0_W_boundary"/>
    <vehicle id="vehicle_79" type="car" route="route_79" depart="2846.56"/>
    <route id="route_80" edges="I_2_0_W_boundary_to_I_2_0 I_2_0_to_I_1_0 I_1_0_to_I_1_0_W_boundary"/>
    <vehicle id="vehicle_80" type="car" route="route_80" depart="2874.67"/>
    <route id="route_81" edges="I_1_0_W_boundary_to_I_1_0 I_1_0_to_I_1_1 I_1_1_to_I_1_2 I_1_2_to_I_1_2_E_boundary"/>
    <vehicle id="vehicle_81" type="car" route="route_81" depart="2924.21"/>
    <route id="route_82" edges="I_1_2_E_boundary_to_I_1_2 I_1_2_to_I_1_1 I_1_1_to_I_1_0 I_1_0_to_I_1_0_W_boundary"/>
    <vehicle id="vehicle_82" type="car" route="route_82" depart="2961.81"/>
    <route id="route_83" edges="I_2_2_S_boundary_to_I_2_2 I_2_2_to_I_2_1 I_2_1_to_I_2_0 I_2_0_to_I_1_0 I_1_0_to_I_1_0_W_boundary"/>
    <vehicle id="vehicle_83" type="car" route="route_83" depart="2981.94"/>
    <route id="route_84" edges="I_1_0_W_boundary_to_I_1_0 I_1_0_to_I_1_1 I_1_1_to_I_0_1 I_0_1_to_I_0_1_N_boundary"/>
    <vehicle id="vehicle_84" type="car" route="route_84" depart="3029.44"/>
    <route id="route_85" edges="I_1_2_E_boundary_to_I_1_2 I_1_2_to_I_2_2 I_2_2_to_I_2_2_E_boundary"/>
    <vehicle id="vehicle_85" type="car" route="route_85" depart="3068.39"/>
    <route id="route_86" edges="I_2_0_W_boundary_to_I_2_0 I_2_0_to_I_2_1 I_2_1_to_I_1_1 I_1_1_to_I_0_1 I_0_1_to_I_0_1_N_boundary"/>
    <vehicle id="vehicle_86" type="car" route="route_86" depart="3104.26"/>
    <route id="route_87" edges="I_2_1_S_boundary_to_I_2_1 I_2_1_to_I_1_1 I_1_1_to_I_0_1 I_0_1_to_I_0_1_N_boundary"/>
    <vehicle id="vehicle_87" type="car" route="route_87" depart="3136.17"/>
    <route id="route_88" edges="I_1_2_E_boundary_to_I_1_2 I_1_2_to_I_0_2 I_0_2_to_I_0_2_N_boundary"/>
    <vehicle id="vehicle_88" type="car" route="route_88" depart="3172.44"/>
    <route id="route_89" edges="I_1_2_E_boundary_to_I_1_2 I_1_2_to_I_0_2 I_0_2_to_I_0_2_N_boundary"/>
    <vehicle id="vehicle_89" type="car" route="route_89" depart="3206.09"/>
    <route id="route_90" edges="I_0_2_N_boundary_to_I_0_2 I_0_2_to_I_1_2 I_1_2_to_I_2_2 I_2_2_to_I_2_2_S_boundary"/>
    <vehicle id="vehicle_90" type="car" route="route_90" depart="3245.53"/>
    <route id="route_91" edges="I_0_0_N_boundary_to_I_0_0 I_0_0_to_I_1_0 I_1_0_to_I_1_0_W_boundary"/>
    <vehicle id="vehicle_91" type="car" route="route_91" depart="3274.76"/>
    <route id="route_92" edges="I_1_2_E_boundary_to_I_1_2 I_1_2_to_I_1_1 I_1_1_to_I_0_1 I_0_1_to_I_0_1_N_boundary"/>
    <vehicle id="vehicle_92" type="car" route="route_92" depart="3309.66"/>
    <route id="route_93" edges="I_1_0_W_boundary_to_I_1_0 I_1_0_to_I_2_0 I_2_0_to_I_2_0_S_boundary"/>
    <vehicle id="vehicle_93" type="car" route="route_93" depart="3347.98"/>
    <route id="route_94" edges="I_2_1_S_boundary_to_I_2_1 I_2_1_to_I_1_1 I_1_1_to_I_0_1 I_0_1_to_I_0_1_N_boundary"/>
    <vehicle id="vehicle_94" type="car" route="route_94" depart="3383.27"/>
    <route id="route_95" edges="I_2_2_S_boundary_to_I_2_2 I_2_2_to_I_2_1 I_2_1_to_I_1_1 I_1_1_to_I_0_1 I_0_1_to_I_0_1_N_boundary"/>
    <vehicle id="vehicle_95" type="car" route="route_95" depart="3410.17"/>
    <route id="route_96" edges="I_0_0_W_boundary_to_I_0_0 I_0_0_to_I_0_1 I_0_1_to_I_0_1_N_boundary"/>
    <vehicle id="vehicle_96" type="car" route="route_96" depart="3464.38"/>
    <route id="route_97" edges="I_2_1_S_boundary_to_I_2_1 I_2_1_to_I_2_2 I_2_2_to_I_1_2 I_1_2_to_I_1_2_E_boundary"/>
    <vehicle id="vehicle_97" type="car" route="route_97" depart="3482.52"/>
    <route id="route_98" edges="I_2_2_S_boundary_to_I_2_2 I_2_2_to_I_2_1 I_2_1_to_I_2_0 I_2_0_to_I_1_0 I_1_0_to_I_1_0_W_boundary"/>
    <vehicle id="vehicle_98" type="car" route="route_98" depart="3526.43"/>
    <route id="route_99" edges="I_2_2_E_boundary_to_I_2_2 I_2_2_to_I_1_2 I_1_2_to_I_1_2_E_boundary"/>
    <vehicle id="vehicle_99" type="car" route="route_99" depart="3557.04"/>
    <route id="route_100" edges="I_2_0_S_boundary_to_I_2_0 I_2_0_to_I_2_1 I_2_1_to_I_2_2 I_2_2_to_I_2_2_E_boundary"/>
    <vehicle id="vehicle_100" type="car" route="route_100" depart="9.41"/>
    <route id="route_101" edges="I_1_0_W_boundary_to_I_1_0 I_1_0_to_I_1_1 I_1_1_to_I_0_1 I_0_1_to_I_0_1_N_boundary"/>
    <vehicle id="vehicle_101" type="car" route="route_101" depart="38.40"/>
    <route id="route_102" edges="I_2_0_S_boundary_to_I_2_0 I_2_0_to_I_2_1 I_2_1_to_I_2_2 I_2_2_to_I_1_2 I_1_2_to_I_0_2 I_0_2_to_I_0_2_N_boundary"/>
    <vehicle id="vehicle_102" type="car" route="route_102" depart="76.50"/>
    <route id="route_103" edges="I_2_2_S_boundary_to_I_2_2 I_2_2_to_I_2_1 I_2_1_to_I_1_1 I_1_1_to_I_0_1 I_0_1_to_I_0_1_N_boundary"/>
    <vehicle id="vehicle_103" type="car" route="route_103" depart="106.82"/>
    <route id="route_104" edges="I_1_2_E_boundary_to_I_1_2 I_1_2_to_I_1_1 I_1_1_to_I_0_1 I_0_1_to_I_0_1_N_boundary"/>
    <vehicle id="vehicle_104" type="car" route="route_104" depart="135.01"/>
    <route id="route_105" edges="I_2_1_S_boundary_to_I_2_1 I_2_1_to_I_2_2 I_2_2_to_I_1_2 I_1_2_to_I_1_2_E_boundary"/>
    <vehicle id="vehicle_105" type="car" route="route_105" depart="181.46"/>
    <route id="route_106" edges="I_2_1_S_boundary_to_I_2_1 I_2_1_to_I_2_2 I_2_2_to_I_1_2 I_1_2_to_I_0_2 I_0_2_to_I_0_2_E_boundary"/>
    <vehicle id="vehicle_106" type="car" route="route_106" depart="219.29"/>
    <route id="route_107" edges="I_2_1_S_boundary_to_I_2_1 I_2_1_to_I_2_0 I_2_0_to_I_2_0_W_boundary"/>
    <vehicle id="vehicle_107" type="car" route="route_107" depart="246.11"/>
    <route id="route_108" edges="I_1_0_W_boundary_to_I_1_0 I_1_0_to_I_0_0 I_0_0_to_I_0_0_N_boundary"/>
    <vehicle id="vehicle_108" type="car" route="route_108" depart="287.52"/>
    <route id="route_109" edges="I_0_0_N_boundary_to_I_0_0 I_0_0_to_I_0_1 I_0_1_to_I_0_1_N_boundary"/>
    <vehicle id="vehicle_109" type="car" route="route_109" depart="313.27"/>
    <route id="route_110" edges="I_0_1_N_boundary_to_I_0_1 I_0_1_to_I_0_2 I_0_2_to_I_1_2 I_1_2_to_I_1_2_E_boundary"/>
    <vehicle id="vehicle_110" type="car" route="route_110" depart="362.47"/>
    <route id="route_111" edges="I_0_1_N_boundary_to_I_0_1 I_0_1_to_I_0_0 I_0_0_to_I_1_0 I_1_0_to_I_2_0 I_2_0_to_I_2_0_W_boundary"/>
    <vehicle id="vehicle_111" type="car" route="route_111" depart="396.74"/>
    <route id="route_112" edges="I_0_1_N_boundary_to_I_0_1 I_0_1_to_I_0_0 I_0_0_to_I_0_0_N_boundary"/>
    <vehicle id="vehicle_112" type="car" route="route_112" depart="434.25"/>
    <route id="route_113" edges="I_0_0_W_boundary_to_I_0_0 I_0_0_to_I_0_1 I_0_1_to_I_0_2 I_0_2_to_I_1_2 I_1_2_to_I_1_2_E_boundary"/>
    <vehicle id="vehicle_113" type="car" route="route_113" depart="478.68"/>
    <route id="route_114" edges="I_0_1_N_boundary_to_I_0_1 I_0_1_to_I_1_1 I_1_1_to_I_2_1 I_2_1_to_I_2_1_S_boundary"/>
    <vehicle id="vehicle_114" type="car" route="route_114" depart="505.36"/>
    <route id="route_115" edges="I_2_0_W_boundary_to_I_2_0 I_2_0_to_I_2_1 I_2_1_to_I_2_2 I_2_2_to_I_1_2 I_1_2_to_I_1_2_E_boundary"/>
    <vehicle id="vehicle_115" type="car" route="route_115" depart="544.15"/>
    <route id="route_116" edges="I_2_1_S_boundary_to_I_2_1 I_2_1_to_I_2_0 I_2_0_to_I_1_0 I_1_0_to_I_1_0_W_boundary"/>
    <vehicle id="vehicle_116" type="car" route="route_116" depart="574.84"/>
    <route id="route_117" edges="I_0_1_N_boundary_to_I_0_1 I_0_1_to_I_0_0 I_0_0_to_I_1_0 I_1_0_to_I_2_0 I_2_0_to_I_2_0_W_boundary"/>
    <vehicle id="vehicle_117" type="car" route="route_117" depart="603.65"/>
    <route id="route_118" edges="I_2_1_S_boundary_to_I_2_1 I_2_1_to_I_2_0 I_2_0_to_I_1_0 I_1_0_to_I_0_0 I_0_0_to_I_0_0_W_boundary"/>
    <vehicle id="vehicle_118" type="car" route="route_118" depart="651.45"/>
    <route id="route_119" edges="I_0_0_W_boundary_to_I_0_0 I_0_0_to_I_0_1 I_0_1_to_I_1_1 I_1_1_to_I_2_1 I_2_1_to_I_2_1_S_boundary"/>
    <vehicle id="vehicle_119" type="car" route="route_119" depart="676.61"/>
    <route id="route_120" edges="I_2_1_S_boundary_to_I_2_1 I_2_1_to_I_2_2 I_2_2_to_I_1_2 I_1_2_to_I_1_2_E_boundary"/>
    <vehicle id="vehicle_120" type="car" route="route_120" depart="713.05"/>
    <route id="route_121" edges="I_0_2_E_boundary_to_I_0_2 I_0_2_to_I_0_1 I_0_1_to_I_0_0 I_0_0_to_I_1_0 I_1_0_to_I_1_0_W_boundary"/>
    <vehicle id="vehicle_121" type="car" route="route_121" depart="745.41"/>
    <route id="route_122" edges="I_0_2_E_boundary_to_I_0_2 I_0_2_to_I_0_1 I_0_1_to_I_0_1_N_boundary"/>
    <vehicle id="vehicle_122" type="car" route="route_122" depart="799.98"/>
    <route id="route_123" edges="I_0_0_N_boundary_to_I_0_0 I_0_0_to_I_1_0 I_1_0_to_I_2_0 I_2_0_to_I_2_0_S_boundary"/>
    <vehicle id="vehicle_123" type="car" route="route_123" depart="828.66"/>
    <route id="route_124" edges="I_2_0_W_boundary_to_I_2_0 I_2_0_to_I_1_0 I_1_0_to_I_0_0 I_0_0_to_I_0_0_W_boundary"/>
    <vehicle id="vehicle_124" type="car" route="route_124" depart="856.26"/>
    <route id="route_125" edges="I_1_2_E_boundary_to_I_1_2 I_1_2_to_I_1_1 I_1_1_to_I_0_1 I_0_1_to_I_0_1_N_boundary"/>
    <vehicle id="vehicle_125" type="car" route="route_125" depart="890.17"/>
    <route id="route_126" edges="I_2_0_W_boundary_to_I_2_0 I_2_0_to_I_2_1 I_2_1_to_I_2_2 I_2_2_to_I_2_2_E_boundary"/>
    <vehicle id="vehicle_126" type="car" route="route_126" depart="936.60"/>
    <route id="route_127" edges="I_1_0_W_boundary_to_I_1_0 I_1_0_to_I_1_1 I_1_1_to_I_1_2 I_1_2_to_I_1_2_E_boundary"/>
    <vehicle id="vehicle_127" type="car" route="route_127" depart="967.58"/>
    <route id="route_128" edges="I_1_2_E_boundary_to_I_1_2 I_1_2_to_I_1_1 I_1_1_to_I_2_1 I_2_1_to_I_2_1_S_boundary"/>
    <vehicle id="vehicle_128" type="car" route="route_128" depart="1003.90"/>
    <route id="route_129" edges="I_2_2_S_boundary_to_I_2_2 I_2_2_to_I_2_1 I_2_1_to_I_2_0 I_2_0_to_I_2_0_S_boundary"/>
    <vehicle id="vehicle_129" type="car" route="route_129" depart="1042.31"/>
    <route id="route_130" edges="I_2_2_E_boundary_to_I_2_2 I_2_2_to_I_2_1 I_2_1_to_I_2_0 I_2_0_to_I_2_0_W_boundary"/>
    <vehicle id="vehicle_130" type="car" route="route_130" depart="1076.50"/>
    <route id="route_131" edges="I_2_1_S_boundary_to_I_2_1 I_2_1_to_I_1_1 I_1_1_to_I_0_1 I_0_1_to_I_0_1_N_boundary"/>
    <vehicle id="vehicle_131" type="car" route="route_131" depart="1105.42"/>
    <route id="route_132" edges="I_1_2_E_boundary_to_I_1_2 I_1_2_to_I_1_1 I_1_1_to_I_2_1 I_2_1_to_I_2_1_S_boundary"/>
    <vehicle id="vehicle_132" type="car" route="route_132" depart="1152.35"/>
    <route id="route_133" edges="I_1_2_E_boundary_to_I_1_2 I_1_2_to_I_1_1 I_1_1_to_I_1_0 I_1_0_to_I_1_0_W_boundary"/>
    <vehicle id="vehicle_133" type="car" route="route_133" depart="1190.48"/>
    <route id="route_134" edges="I_2_0_S_boundary_to_I_2_0 I_2_0_to_I_1_0 I_1_0_to_I_1_0_W_boundary"/>
    <vehicle id="vehicle_134" type="car" route="route_134" depart="1218.35"/>
    <route id="route_135" edges="I_0_1_N_boundary_to_I_0_1 I_0_1_to_I_0_2 I_0_2_to_I_1_2 I_1_2_to_I_1_2_E_boundary"/>
    <vehicle id="vehicle_135" type="car" route="route_135" depart="1257.46"/>
    <route id="route_136" edges="I_0_2_N_boundary_to_I_0_2 I_0_2_to_I_0_1 I_0_1_to_I_0_1_N_boundary"/>
    <vehicle id="vehicle_136" type="car" route="route_136" depart="1300.16"/>
    <route id="route_137" edges="I_2_1_S_boundary_to_I_2_1 I_2_1_to_I_2_0 I_2_0_to_I_1_0 I_1_0_to_I_1_0_W_boundary"/>
    <vehicle id="vehicle_137" type="car" route="route_137" depart="1324.46"/>
    <route id="route_138" edges="I_0_2_N_boundary_to_I_0_2 I_0_2_to_I_1_2 I_1_2_to_I_2_2 I_2_2_to_I_2_2_E_boundary"/>
    <vehicle id="vehicle_138" type="car" route="route_138" depart="1360.13"/>
    <route id="route_139" edges="I_1_0_W_boundary_to_I_1_0 I_1_0_to_I_1_1 I_1_1_to_I_0_1 I_0_1_to_I_0_1_N_boundary"/>
    <vehicle id="vehicle_139" type="car" route="route_139" depart="1398.14"/>
    <route id="route_140" edges="I_2_0_W_boundary_to_I_2_0 I_2_0_to_I_2_1 I_2_1_to_I_2_2 I_2_2_to_I_1_2 I_1_2_to_I_0_2 I_0_2_to_I_0_2_E_boundary"/>
    <vehicle id="vehicle_140" type="car" route="route_140" depart="1437.44"/>
    <route id="route_141" edges="I_0_0_W_boundary_to_I_0_0 I_0_0_to_I_0_1 I_0_1_to_I_1_1 I_1_1_to_I_2_1 I_2_1_to_I_2_1_S_boundary"/>
    <vehicle id="vehicle_141" type="car" route="route_141" depart="1466.83"/>
    <route id="route_142" edges="I_0_1_N_boundary_to_I_0_1 I_0_1_to_I_0_0 I_0_0_to_I_1_0 I_1_0_to_I_1_0_W_boundary"/>
    <vehicle id="vehicle_142" type="car" route="route_142" depart="1501.76"/>
    <route id="route_143" edges="I_2_2_S_boundary_to_I_2_2 I_2_2_to_I_2_1 I_2_1_to_I_2_0 I_2_0_to_I_1_0 I_1_0_to_I_1_0_W_boundary"/>
    <vehicle id="vehicle_143" type="car" route="route_143" depart="1556.98"/>
    <route id="route_144" edges="I_0_0_W_boundary_to_I_0_0 I_0_0_to_I_0_1 I_0_1_to_I_1_1 I_1_1_to_I_2_1 I_2_1_to_I_2_1_S_boundary"/>
    <vehicle id="vehicle_144" type="car" route="route_144" depart="1585.18"/>
    <route id="route_145" edges="I_0_0_W_boundary_to_I_0_0 I_0_0_to_I_0_1 I_0_1_to_I_1_1 I_1_1_to_I_2_1 I_2_1_to_I_2_1_S_boundary"/>
    <vehicle id="vehicle_145" type="car" route="route_145" depart="1609.65"/>
    <route id="route_146" edges="I_1_2_E_boundary_to_I_1_2 I_1_2_to_I_1_1 I_1_1_to_I_1_0 I_1_0_to_I_2_0 I_2_0_to_I_2_0_W_boundary"/>
    <vehicle id="vehicle_146" type="car" route="route_146" depart="1658.21"/>
    <route id="route_147" edges="I_1_0_W_boundary_to_I_1_0 I_1_0_to_I_0_0 I_0_0_to_I_0_0_W_boundary"/>
    <vehicle id="vehicle_147" type="car" route="route_147" depart="1701.73"/>
    <route id="route_148" edges="I_2_2_E_boundary_to_I_2_2 I_2_2_to_I_2_1 I_2_1_to_I_1_1 I_1_1_to_I_0_1 I_0_1_to_I_0_1_N_boundary"/>
    <vehicle id="vehicle_148" type="car" route="route_148" depart="1730.56"/>
    <route id="route_149" edges="I_1_2_E_boundary_to_I_1_2 I_1_2_to_I_1_1 I_1_1_to_I_1_0 I_1_0_to_I_2_0 I_2_0_to_I_2_0_S_boundary"/>
    <vehicle id="vehicle_149" type="car" route="route_149" depart="1773.38"/>
    <route id="route_150" edges="I_0_0_N_boundary_to_I_0_0 I_0_0_to_I_0_1 I_0_1_to_I_0_1_N_boundary"/>
    <vehicle id="vehicle_150" type="car" route="route_150" depart="1791.15"/>
    <route id="route_151" edges="I_1_2_E_boundary_to_I_1_2 I_1_2_to_I_1_1 I_1_1_to_I_1_0 I_1_0_to_I_2_0 I_2_0_to_I_2_0_W_boundary"/>
    <vehicle id="vehicle_151" type="car" route="route_151" depart="1826.86"/>