<?xml version="1.0" encoding="UTF-8"?>
<nodes xmlns:xsi="http://www.w3.org/2001/XMLSchema-instance" xsi:noNamespaceSchemaLocation="http://sumo.dlr.de/xsd/nodes_file.xsd">
    <!-- Central traffic light controlled junction -->
    <node id="TL" type="traffic_light" x="500.0" y="500.0" />
    
    <!-- Boundary nodes (dead ends) -->
    <node id="N" type="dead_end" x="500.0" y="0.0" />
    <node id="S" type="dead_end" x="500.0" y="1000.0" />
    <node id="E" type="dead_end" x="1000.0" y="500.0" />
    <node id="W" type="dead_end" x="0.0" y="500.0" />
</nodes>
