<?xml version="1.0" encoding="UTF-8"?>
<routes>
    <vType id="standard_car" accel="0.8" decel="4.5" sigma="0.5" length="5" minGap="2.5" maxSpeed="16.67" guiShape="passenger"/>

    <route id="north_to_south" edges="N2TL TL2S"/>
    <route id="north_to_east" edges="N2TL TL2E"/>
    <route id="north_to_west" edges="N2TL TL2W"/>
    <route id="south_to_north" edges="S2TL TL2N"/>
    <route id="south_to_west" edges="S2TL TL2W"/>
    <route id="south_to_east" edges="S2TL TL2E"/>
    <route id="east_to_west" edges="E2TL TL2W"/>
    <route id="east_to_north" edges="E2TL TL2N"/>
    <route id="east_to_south" edges="E2TL TL2S"/>
    <route id="west_to_east" edges="W2TL TL2E"/>
    <route id="west_to_south" edges="W2TL TL2S"/>
    <route id="west_to_north" edges="W2TL TL2N"/>

    <vehicle id="veh_0" type="standard_car" route="east_to_north" depart="2930.65"/>
    <vehicle id="veh_1" type="standard_car" route="east_to_west" depart="856.05"/>
    <vehicle id="veh_2" type="standard_car" route="west_to_south" depart="709.77"/>
    <vehicle id="veh_3" type="standard_car" route="east_to_north" depart="1123.63"/>
    <vehicle id="veh_4" type="standard_car" route="north_to_west" depart="2549.48"/>
    <vehicle id="veh_5" type="standard_car" route="east_to_west" depart="3400.74"/>
    <vehicle id="veh_6" type="standard_car" route="east_to_west" depart="1275.26"/>
    <vehicle id="veh_7" type="standard_car" route="north_to_west" depart="2406.10"/>
    <vehicle id="veh_8" type="standard_car" route="east_to_south" depart="2373.87"/>
    <vehicle id="veh_9" type="standard_car" route="south_to_north" depart="1394.15"/>
    <vehicle id="veh_10" type="standard_car" route="north_to_south" depart="3116.82"/>
    <vehicle id="veh_11" type="standard_car" route="north_to_west" depart="967.19"/>
    <vehicle id="veh_12" type="standard_car" route="north_to_west" depart="705.37"/>
    <vehicle id="veh_13" type="standard_car" route="west_to_north" depart="3539.49"/>
    <vehicle id="veh_14" type="standard_car" route="west_to_east" depart="3141.45"/>
    <vehicle id="veh_15" type="standard_car" route="south_to_west" depart="1151.83"/>
    <vehicle id="veh_16" type="standard_car" route="west_to_east" depart="2389.30"/>
    <vehicle id="veh_17" type="standard_car" route="south_to_west" depart="1224.11"/>
    <vehicle id="veh_18" type="standard_car" route="south_to_east" depart="3282.63"/>
    <vehicle id="veh_19" type="standard_car" route="north_to_east" depart="3580.08"/>
    <vehicle id="veh_20" type="standard_car" route="east_to_north" depart="2474.62"/>
    <vehicle id="veh_21" type="standard_car" route="north_to_east" depart="1551.99"/>
    <vehicle id="veh_22" type="standard_car" route="south_to_north" depart="3411.09"/>
    <vehicle id="veh_23" type="standard_car" route="west_to_north" depart="2492.91"/>
    <vehicle id="veh_24" type="standard_car" route="south_to_east" depart="2314.71"/>
    <vehicle id="veh_25" type="standard_car" route="south_to_east" depart="2506.22"/>
    <vehicle id="veh_26" type="standard_car" route="east_to_west" depart="2656.80"/>
    <vehicle id="veh_27" type="standard_car" route="east_to_south" depart="1536.72"/>
    <vehicle id="veh_28" type="standard_car" route="north_to_west" depart="1232.19"/>
    <vehicle id="veh_29" type="standard_car" route="west_to_south" depart="1931.64"/>
    <vehicle id="veh_30" type="standard_car" route="north_to_south" depart="864.69"/>
    <vehicle id="veh_31" type="standard_car" route="east_to_west" depart="932.76"/>
    <vehicle id="veh_32" type="standard_car" route="north_to_south" depart="1925.41"/>
    <vehicle id="veh_33" type="standard_car" route="west_to_east" depart="1841.88"/>
    <vehicle id="veh_34" type="standard_car" route="south_to_north" depart="681.16"/>
    <vehicle id="veh_35" type="standard_car" route="west_to_east" depart="2339.01"/>
    <vehicle id="veh_36" type="standard_car" route="east_to_north" depart="1506.40"/>
    <vehicle id="veh_37" type="standard_car" route="east_to_west" depart="681.08"/>
    <vehicle id="veh_38" type="standard_car" route="east_to_south" depart="782.51"/>
    <vehicle id="veh_39" type="standard_car" route="north_to_east" depart="2840.69"/>
    <vehicle id="veh_40" type="standard_car" route="east_to_west" depart="2315.37"/>
    <vehicle id="veh_41" type="standard_car" route="south_to_east" depart="3557.67"/>
    <vehicle id="veh_42" type="standard_car" route="south_to_east" depart="2192.04"/>
    <vehicle id="veh_43" type="standard_car" route="north_to_west" depart="3567.74"/>
    <vehicle id="veh_44" type="standard_car" route="south_to_north" depart="702.77"/>
    <vehicle id="veh_45" type="standard_car" route="north_to_east" depart="2388.57"/>
    <vehicle id="veh_46" type="standard_car" route="east_to_north" depart="2013.74"/>
    <vehicle id="veh_47" type="standard_car" route="west_to_east" depart="893.89"/>
    <vehicle id="veh_48" type="standard_car" route="north_to_south" depart="688.54"/>
    <vehicle id="veh_49" type="standard_car" route="west_to_south" depart="3142.05"/>
    <vehicle id="veh_50" type="standard_car" route="west_to_north" depart="213.47"/>
    <vehicle id="veh_51" type="standard_car" route="south_to_north" depart="3065.98"/>
    <vehicle id="veh_52" type="standard_car" route="west_to_east" depart="2693.65"/>
    <vehicle id="veh_53" type="standard_car" route="west_to_south" depart="2166.99"/>
    <vehicle id="veh_54" type="standard_car" route="west_to_south" depart="2706.12"/>
    <vehicle id="veh_55" type="standard_car" route="south_to_east" depart="2269.58"/>
    <vehicle id="veh_56" type="standard_car" route="east_to_south" depart="1467.07"/>
    <vehicle id="veh_57" type="standard_car" route="east_to_north" depart="3344.95"/>
    <vehicle id="veh_58" type="standard_car" route="west_to_south" depart="1817.42"/>
    <vehicle id="veh_59" type="standard_car" route="north_to_east" depart="2861.13"/>
    <vehicle id="veh_60" type="standard_car" route="west_to_north" depart="3395.32"/>
    <vehicle id="veh_61" type="standard_car" route="west_to_south" depart="1489.80"/>
    <vehicle id="veh_62" type="standard_car" route="east_to_west" depart="1578.49"/>
    <vehicle id="veh_63" type="standard_car" route="west_to_east" depart="2096.08"/>
    <vehicle id="veh_64" type="standard_car" route="west_to_south" depart="1557.32"/>
    <vehicle id="veh_65" type="standard_car" route="east_to_north" depart="1258.31"/>
    <vehicle id="veh_66" type="standard_car" route="east_to_south" depart="1436.88"/>
    <vehicle id="veh_67" type="standard_car" route="north_to_south" depart="1303.45"/>
    <vehicle id="veh_68" type="standard_car" route="west_to_north" depart="2483.42"/>
    <vehicle id="veh_69" type="standard_car" route="west_to_north" depart="1877.90"/>
    <vehicle id="veh_70" type="standard_car" route="north_to_west" depart="1364.15"/>
    <vehicle id="veh_71" type="standard_car" route="south_to_east" depart="2217.05"/>
    <vehicle id="veh_72" type="standard_car" route="south_to_west" depart="2813.15"/>
    <vehicle id="veh_73" type="standard_car" route="west_to_east" depart="2167.20"/>
    <vehicle id="veh_74" type="standard_car" route="south_to_north" depart="423.78"/>
    <vehicle id="veh_75" type="standard_car" route="north_to_west" depart="1523.28"/>
    <vehicle id="veh_76" type="standard_car" route="south_to_north" depart="1570.55"/>
    <vehicle id="veh_77" type="standard_car" route="south_to_north" depart="2077.56"/>
    <vehicle id="veh_78" type="standard_car" route="south_to_east" depart="4.23"/>
    <vehicle id="veh_79" type="standard_car" route="north_to_south" depart="2970.13"/>
    <vehicle id="veh_80" type="standard_car" route="west_to_south" depart="2120.45"/>
    <vehicle id="veh_81" type="standard_car" route="south_to_west" depart="1341.12"/>
    <vehicle id="veh_82" type="standard_car" route="south_to_west" depart="3007.26"/>
    <vehicle id="veh_83" type="standard_car" route="east_to_south" depart="2873.50"/>
    <vehicle id="veh_84" type="standard_car" route="south_to_north" depart="3042.43"/>
    <vehicle id="veh_85" type="standard_car" route="east_to_north" depart="2647.92"/>
    <vehicle id="veh_86" type="standard_car" route="west_to_north" depart="2108.47"/>
    <vehicle id="veh_87" type="standard_car" route="south_to_east" depart="616.96"/>
    <vehicle id="veh_88" type="standard_car" route="south_to_north" depart="3401.13"/>
    <vehicle id="veh_89" type="standard_car" route="south_to_east" depart="1512.04"/>
    <vehicle id="veh_90" type="standard_car" route="east_to_west" depart="1190.84"/>
    <vehicle id="veh_91" type="standard_car" route="west_to_south" depart="1249.10"/>
    <vehicle id="veh_92" type="standard_car" route="east_to_south" depart="1871.95"/>
    <vehicle id="veh_93" type="standard_car" route="north_to_west" depart="2934.58"/>
    <vehicle id="veh_94" type="standard_car" route="east_to_west" depart="950.55"/>
    <vehicle id="veh_95" type="standard_car" route="south_to_east" depart="2498.78"/>
    <vehicle id="veh_96" type="standard_car" route="west_to_north" depart="100.41"/>
    <vehicle id="veh_97" type="standard_car" route="east_to_west" depart="2959.40"/>
    <vehicle id="veh_98" type="standard_car" route="east_to_west" depart="2449.41"/>
    <vehicle id="veh_99" type="standard_car" route="north_to_west" depart="2827.29"/>
    <vehicle id="veh_100" type="standard_car" route="west_to_north" depart="437.44"/>
    <vehicle id="veh_101" type="standard_car" route="south_to_east" depart="618.15"/>
    <vehicle id="veh_102" type="standard_car" route="east_to_west" depart="1794.60"/>
    <vehicle id="veh_103" type="standard_car" route="west_to_east" depart="2987.37"/>
    <vehicle id="veh_104" type="standard_car" route="west_to_north" depart="1236.75"/>
    <vehicle id="veh_105" type="standard_car" route="north_to_east" depart="1260.64"/>
    <vehicle id="veh_106" type="standard_car" route="south_to_north" depart="2815.27"/>
    <vehicle id="veh_107" type="standard_car" route="south_to_north" depart="2564.16"/>
    <vehicle id="veh_108" type="standard_car" route="south_to_west" depart="472.83"/>
    <vehicle id="veh_109" type="standard_car" route="north_to_east" depart="1579.45"/>
    <vehicle id="veh_110" type="standard_car" route="south_to_west" depart="2505.96"/>
    <vehicle id="veh_111" type="standard_car" route="west_to_east" depart="104.71"/>
    <vehicle id="veh_112" type="standard_car" route="west_to_south" depart="407.60"/>
    <vehicle id="veh_113" type="standard_car" route="north_to_south" depart="3428.24"/>
    <vehicle id="veh_114" type="standard_car" route="east_to_south" depart="2178.54"/>
    <vehicle id="veh_115" type="standard_car" route="west_to_south" depart="1319.77"/>
    <vehicle id="veh_116" type="standard_car" route="north_to_west" depart="2980.40"/>
    <vehicle id="veh_117" type="standard_car" route="east_to_north" depart="1552.58"/>
    <vehicle id="veh_118" type="standard_car" route="east_to_south" depart="2766.99"/>
    <vehicle id="veh_119" type="standard_car" route="north_to_west" depart="368.88"/>
    <vehicle id="veh_120" type="standard_car" route="east_to_north" depart="1193.99"/>
    <vehicle id="veh_121" type="standard_car" route="west_to_south" depart="2845.44"/>
    <vehicle id="veh_122" type="standard_car" route="south_to_north" depart="3408.77"/>
    <vehicle id="veh_123" type="standard_car" route="south_to_west" depart="1907.61"/>
    <vehicle id="veh_124" type="standard_car" route="south_to_north" depart="52.62"/>
    <vehicle id="veh_125" type="standard_car" route="west_to_south" depart="687.36"/>
    <vehicle id="veh_126" type="standard_car" route="west_to_north" depart="522.38"/>
    <vehicle id="veh_127" type="standard_car" route="south_to_north" depart="648.74"/>
    <vehicle id="veh_128" type="standard_car" route="east_to_south" depart="1502.94"/>
    <vehicle id="veh_129" type="standard_car" route="north_to_east" depart="2843.01"/>
    <vehicle id="veh_130" type="standard_car" route="west_to_east" depart="1225.75"/>
    <vehicle id="veh_131" type="standard_car" route="south_to_west" depart="2360.43"/>
    <vehicle id="veh_132" type="standard_car" route="west_to_north" depart="392.71"/>
    <vehicle id="veh_133" type="standard_car" route="east_to_north" depart="3393.61"/>
    <vehicle id="veh_134" type="standard_car" route="west_to_north" depart="360.61"/>
    <vehicle id="veh_135" type="standard_car" route="north_to_south" depart="2741.50"/>
    <vehicle id="veh_136" type="standard_car" route="west_to_east" depart="423.86"/>
    <vehicle id="veh_137" type="standard_car" route="north_to_east" depart="1572.76"/>
    <vehicle id="veh_138" type="standard_car" route="west_to_south" depart="17.50"/>
    <vehicle id="veh_139" type="standard_car" route="west_to_south" depart="2891.88"/>
    <vehicle id="veh_140" type="standard_car" route="north_to_west" depart="127.58"/>
    <vehicle id="veh_141" type="standard_car" route="east_to_north" depart="3117.41"/>
    <vehicle id="veh_142" type="standard_car" route="north_to_west" depart="3016.65"/>
    <vehicle id="veh_143" type="standard_car" route="east_to_north" depart="3002.55"/>
    <vehicle id="veh_144" type="standard_car" route="west_to_north" depart="2861.68"/>
    <vehicle id="veh_145" type="standard_car" route="south_to_east" depart="2772.04"/>
    <vehicle id="veh_146" type="standard_car" route="north_to_west" depart="1262.59"/>
    <vehicle id="veh_147" type="standard_car" route="south_to_west" depart="214.18"/>
    <vehicle id="veh_148" type="standard_car" route="south_to_north" depart="3537.66"/>
    <vehicle id="veh_149" type="standard_car" route="south_to_west" depart="1714.60"/>
    <vehicle id="veh_150" type="standard_car" route="south_to_north" depart="2171.55"/>
    <vehicle id="veh_151" type="standard_car" route="south_to_west" depart="1541.31"/>
    <vehicle id="veh_152" type="standard_car" route="north_to_south" depart="1837.42"/>
    <vehicle id="veh_153" type="standard_car" route="east_to_north" depart="2528.83"/>
    <vehicle id="veh_154" type="standard_car" route="south_to_east" depart="1073.61"/>
    <vehicle id="veh_155" type="standard_car" route="east_to_south" depart="3384.48"/>
    <vehicle id="veh_156" type="standard_car" route="north_to_south" depart="2212.25"/>
    <vehicle id="veh_157" type="standard_car" route="north_to_east" depart="1853.63"/>
    <vehicle id="veh_158" type="standard_car" route="west_to_east" depart="2526.48"/>
    <vehicle id="veh_159" type="standard_car" route="south_to_west" depart="2545.14"/>
    <vehicle id="veh_160" type="standard_car" route="east_to_south" depart="3552.91"/>
    <vehicle id="veh_161" type="standard_car" route="east_to_south" depart="1701.49"/>
    <vehicle id="veh_162" type="standard_car" route="east_to_north" depart="2154.33"/>
    <vehicle id="veh_163" type="standard_car" route="east_to_west" depart="563.49"/>
    <vehicle id="veh_164" type="standard_car" route="west_to_north" depart="436.08"/>
    <vehicle id="veh_165" type="standard_car" route="west_to_south" depart="81.40"/>
    <vehicle id="veh_166" type="standard_car" route="east_to_west" depart="1244.91"/>
    <vehicle id="veh_167" type="standard_car" route="south_to_west" depart="1483.46"/>
    <vehicle id="veh_168" type="standard_car" route="west_to_south" depart="2342.94"/>
    <vehicle id="veh_169" type="standard_car" route="east_to_north" depart="2331.51"/>
    <vehicle id="veh_170" type="standard_car" route="east_to_north" depart="1712.13"/>
    <vehicle id="veh_171" type="standard_car" route="north_to_south" depart="1783.39"/>
    <vehicle id="veh_172" type="standard_car" route="west_to_south" depart="326.38"/>
    <vehicle id="veh_173" type="standard_car" route="south_to_north" depart="1531.23"/>
    <vehicle id="veh_174" type="standard_car" route="north_to_west" depart="1489.40"/>
    <vehicle id="veh_175" type="standard_car" route="south_to_east" depart="656.69"/>
    <vehicle id="veh_176" type="standard_car" route="west_to_north" depart="116.36"/>
    <vehicle id="veh_177" type="standard_car" route="north_to_west" depart="2622.42"/>
    <vehicle id="veh_178" type="standard_car" route="east_to_west" depart="3577.43"/>
    <vehicle id="veh_179" type="standard_car" route="west_to_east" depart="899.73"/>
    <vehicle id="veh_180" type="standard_car" route="south_to_north" depart="1420.99"/>
    <vehicle id="veh_181" type="standard_car" route="south_to_west" depart="2143.22"/>
    <vehicle id="veh_182" type="standard_car" route="east_to_south" depart="1533.90"/>
    <vehicle id="veh_183" type="standard_car" route="east_to_west" depart="506.49"/>
    <vehicle id="veh_184" type="standard_car" route="west_to_north" depart="1643.16"/>
    <vehicle id="veh_185" type="standard_car" route="south_to_west" depart="3024.47"/>
    <vehicle id="veh_186" type="standard_car" route="north_to_south" depart="3405.94"/>
    <vehicle id="veh_187" type="standard_car" route="south_to_north" depart="1644.57"/>
    <vehicle id="veh_188" type="standard_car" route="north_to_east" depart="3425.79"/>
    <vehicle id="veh_189" type="standard_car" route="north_to_south" depart="429.15"/>
    <vehicle id="veh_190" type="standard_car" route="north_to_west" depart="1132.49"/>
    <vehicle id="veh_191" type="standard_car" route="south_to_east" depart="1857.51"/>
    <vehicle id="veh_192" type="standard_car" route="west_to_east" depart="2835.60"/>
    <vehicle id="veh_193" type="standard_car" route="west_to_east" depart="1942.44"/>
    <vehicle id="veh_194" type="standard_car" route="east_to_north" depart="1838.41"/>
    <vehicle id="veh_195" type="standard_car" route="south_to_north" depart="2125.46"/>
    <vehicle id="veh_196" type="standard_car" route="south_to_east" depart="1432.77"/>
    <vehicle id="veh_197" type="standard_car" route="west_to_south" depart="1934.42"/>
    <vehicle id="veh_198" type="standard_car" route="west_to_south" depart="2492.49"/>
    <vehicle id="veh_199" type="standard_car" route="north_to_south" depart="2652.70"/>
    <vehicle id="veh_200" type="standard_car" route="south_to_west" depart="1023.53"/>
    <vehicle id="veh_201" type="standard_car" route="west_to_south" depart="2504.09"/>
    <vehicle id="veh_202" type="standard_car" route="west_to_east" depart="2968.37"/>
    <vehicle id="veh_203" type="standard_car" route="north_to_west" depart="2775.05"/>
    <vehicle id="veh_204" type="standard_car" route="south_to_west" depart="2984.95"/>
    <vehicle id="veh_205" type="standard_car" route="east_to_west" depart="1763.51"/>
    <vehicle id="veh_206" type="standard_car" route="north_to_east" depart="1330.85"/>
    <vehicle id="veh_207" type="standard_car" route="north_to_south" depart="2112.34"/>
    <vehicle id="veh_208" type="standard_car" route="south_to_west" depart="3334.10"/>
    <vehicle id="veh_209" type="standard_car" route="south_to_west" depart="1575.00"/>
    <vehicle id="veh_210" type="standard_car" route="south_to_north" depart="1686.08"/>
    <vehicle id="veh_211" type="standard_car" route="south_to_west" depart="3000.44"/>
    <vehicle id="veh_212" type="standard_car" route="north_to_west" depart="1545.43"/>
    <vehicle id="veh_213" type="standard_car" route="east_to_south" depart="2517.90"/>
    <vehicle id="veh_214" type="standard_car" route="west_to_east" depart="108.45"/>
    <vehicle id="veh_215" type="standard_car" route="west_to_north" depart="3022.57"/>
    <vehicle id="veh_216" type="standard_car" route="north_to_south" depart="1418.28"/>
    <vehicle id="veh_217" type="standard_car" route="west_to_east" depart="823.32"/>
    <vehicle id="veh_218" type="standard_car" route="west_to_east" depart="1629.03"/>
    <vehicle id="veh_219" type="standard_car" route="north_to_south" depart="1237.65"/>
    <vehicle id="veh_220" type="standard_car" route="east_to_south" depart="719.11"/>
    <vehicle id="veh_221" type="standard_car" route="south_to_west" depart="1782.29"/>
    <vehicle id="veh_222" type="standard_car" route="west_to_south" depart="144.83"/>
    <vehicle id="veh_223" type="standard_car" route="east_to_south" depart="476.63"/>
    <vehicle id="veh_224" type="standard_car" route="north_to_west" depart="1422.68"/>
    <vehicle id="veh_225" type="standard_car" route="west_to_south" depart="1205.69"/>
    <vehicle id="veh_226" type="standard_car" route="west_to_east" depart="2322.52"/>
    <vehicle id="veh_227" type="standard_car" route="north_to_south" depart="3039.18"/>
    <vehicle id="veh_228" type="standard_car" route="south_to_east" depart="597.56"/>
    <vehicle id="veh_229" type="standard_car" route="west_to_east" depart="1390.61"/>
    <vehicle id="veh_230" type="standard_car" route="west_to_south" depart="1328.59"/>
    <vehicle id="veh_231" type="standard_car" route="west_to_north" depart="1406.90"/>
    <vehicle id="veh_232" type="standard_car" route="south_to_east" depart="2411.34"/>
    <vehicle id="veh_233" type="standard_car" route="north_to_south" depart="721.45"/>
    <vehicle id="veh_234" type="standard_car" route="west_to_north" depart="3478.05"/>
    <vehicle id="veh_235" type="standard_car" route="south_to_west" depart="3343.25"/>
    <vehicle id="veh_236" type="standard_car" route="south_to_east" depart="2872.86"/>
    <vehicle id="veh_237" type="standard_car" route="south_to_west" depart="2165.61"/>
    <vehicle id="veh_238" type="standard_car" route="east_to_south" depart="409.08"/>
    <vehicle id="veh_239" type="standard_car" route="west_to_east" depart="2079.20"/>
    <vehicle id="veh_240" type="standard_car" route="south_to_north" depart="2140.83"/>
    <vehicle id="veh_241" type="standard_car" route="south_to_east" depart="670.50"/>
    <vehicle id="veh_242" type="standard_car" route="north_to_south" depart="1307.77"/>
    <vehicle id="veh_243" type="standard_car" route="west_to_east" depart="3128.71"/>
    <vehicle id="veh_244" type="standard_car" route="north_to_south" depart="771.42"/>
    <vehicle id="veh_245" type="standard_car" route="north_to_south" depart="697.17"/>
    <vehicle id="veh_246" type="standard_car" route="south_to_west" depart="3598.02"/>
    <vehicle id="veh_247" type="standard_car" route="south_to_east" depart="2654.03"/>
    <vehicle id="veh_248" type="standard_car" route="south_to_west" depart="1124.31"/>
    <vehicle id="veh_249" type="standard_car" route="south_to_north" depart="2297.95"/>
    <vehicle id="veh_250" type="standard_car" route="east_to_south" depart="303.13"/>
    <vehicle id="veh_251" type="standard_car" route="south_to_west" depart="420.04"/>
    <vehicle id="veh_252" type="standard_car" route="north_to_south" depart="18.62"/>
    <vehicle id="veh_253" type="standard_car" route="east_to_north" depart="1498.66"/>
    <vehicle id="veh_254" type="standard_car" route="west_to_south" depart="2562.04"/>
    <vehicle id="veh_255" type="standard_car" route="south_to_west" depart="903.77"/>
    <vehicle id="veh_256" type="standard_car" route="north_to_south" depart="2787.13"/>
    <vehicle id="veh_257" type="standard_car" route="north_to_south" depart="1392.27"/>
    <vehicle id="veh_258" type="standard_car" route="west_to_east" depart="1671.60"/>
    <vehicle id="veh_259" type="standard_car" route="north_to_east" depart="2212.86"/>
    <vehicle id="veh_260" type="standard_car" route="west_to_east" depart="1499.02"/>
    <vehicle id="veh_261" type="standard_car" route="east_to_west" depart="10.83"/>
    <vehicle id="veh_262" type="standard_car" route="west_to_north" depart="2884.71"/>
    <vehicle id="veh_263" type="standard_car" route="east_to_west" depart="1719.49"/>
    <vehicle id="veh_264" type="standard_car" route="south_to_north" depart="1247.40"/>
    <vehicle id="veh_265" type="standard_car" route="west_to_south" depart="1572.20"/>
    <vehicle id="veh_266" type="standard_car" route="south_to_north" depart="2195.75"/>
    <vehicle id="veh_267" type="standard_car" route="south_to_west" depart="464.22"/>
    <vehicle id="veh_268" type="standard_car" route="east_to_south" depart="2734.11"/>
    <vehicle id="veh_269" type="standard_car" route="north_to_west" depart="2697.01"/>
    <vehicle id="veh_270" type="standard_car" route="south_to_west" depart="1927.41"/>
    <vehicle id="veh_271" type="standard_car" route="east_to_south" depart="702.32"/>
    <vehicle id="veh_272" type="standard_car" route="north_to_east" depart="179.35"/>
    <vehicle id="veh_273" type="standard_car" route="east_to_north" depart="1589.98"/>
    <vehicle id="veh_274" type="standard_car" route="south_to_north" depart="1939.82"/>
    <vehicle id="veh_275" type="standard_car" route="west_to_north" depart="1902.47"/>
    <vehicle id="veh_276" type="standard_car" route="west_to_south" depart="62.69"/>
    <vehicle id="veh_277" type="standard_car" route="north_to_west" depart="650.25"/>
    <vehicle id="veh_278" type="standard_car" route="north_to_west" depart="3430.13"/>
    <vehicle id="veh_279" type="standard_car" route="north_to_south" depart="1730.06"/>
    <vehicle id="veh_280" type="standard_car" route="east_to_north" depart="1345.07"/>
    <vehicle id="veh_281" type="standard_car" route="south_to_west" depart="1821.33"/>
    <vehicle id="veh_282" type="standard_car" route="east_to_west" depart="3417.58"/>
    <vehicle id="veh_283" type="standard_car" route="east_to_south" depart="286.22"/>
    <vehicle id="veh_284" type="standard_car" route="east_to_north" depart="1892.64"/>
    <vehicle id="veh_285" type="standard_car" route="north_to_south" depart="1641.89"/>
    <vehicle id="veh_286" type="standard_car" route="south_to_east" depart="1465.58"/>
    <vehicle id="veh_287" type="standard_car" route="north_to_west" depart="118.22"/>
    <vehicle id="veh_288" type="standard_car" route="south_to_west" depart="223.61"/>
    <vehicle id="veh_289" type="standard_car" route="west_to_east" depart="1790.58"/>
    <vehicle id="veh_290" type="standard_car" route="east_to_north" depart="803.71"/>
    <vehicle id="veh_291" type="standard_car" route="west_to_south" depart="926.72"/>
    <vehicle id="veh_292" type="standard_car" route="west_to_east" depart="2683.47"/>
    <vehicle id="veh_293" type="standard_car" route="north_to_east" depart="2362.84"/>
    <vehicle id="veh_294" type="standard_car" route="south_to_west" depart="1096.72"/>
    <vehicle id="veh_295" type="standard_car" route="south_to_east" depart="2321.05"/>
    <vehicle id="veh_296" type="standard_car" route="south_to_north" depart="3042.72"/>
    <vehicle id="veh_297" type="standard_car" route="east_to_south" depart="2230.72"/>
    <vehicle id="veh_298" type="standard_car" route="west_to_east" depart="2542.84"/>
    <vehicle id="veh_299" type="standard_car" route="south_to_east" depart="1095.81"/>
    <vehicle id="veh_300" type="standard_car" route="north_to_south" depart="3001.34"/>
    <vehicle id="veh_301" type="standard_car" route="west_to_east" depart="1408.94"/>
    <vehicle id="veh_302" type="standard_car" route="west_to_east" depart="2099.06"/>
    <vehicle id="veh_303" type="standard_car" route="north_to_east" depart="1571.27"/>
    <vehicle id="veh_304" type="standard_car" route="west_to_south" depart="2446.07"/>
    <vehicle id="veh_305" type="standard_car" route="north_to_south" depart="3049.19"/>
    <vehicle id="veh_306" type="standard_car" route="east_to_south" depart="1005.54"/>
    <vehicle id="veh_307" type="standard_car" route="west_to_east" depart="2583.97"/>
    <vehicle id="veh_308" type="standard_car" route="south_to_north" depart="1676.25"/>
    <vehicle id="veh_309" type="standard_car" route="south_to_west" depart="1286.92"/>
    <vehicle id="veh_310" type="standard_car" route="north_to_west" depart="1093.21"/>
    <vehicle id="veh_311" type="standard_car" route="north_to_south" depart="1406.38"/>
    <vehicle id="veh_312" type="standard_car" route="north_to_east" depart="906.34"/>
    <vehicle id="veh_313" type="standard_car" route="north_to_south" depart="515.93"/>
    <vehicle id="veh_314" type="standard_car" route="west_to_south" depart="3382.87"/>
    <vehicle id="veh_315" type="standard_car" route="north_to_west" depart="2771.93"/>
    <vehicle id="veh_316" type="standard_car" route="east_to_west" depart="2054.96"/>
    <vehicle id="veh_317" type="standard_car" route="north_to_east" depart="1374.31"/>
    <vehicle id="veh_318" type="standard_car" route="east_to_south" depart="1160.74"/>
    <vehicle id="veh_319" type="standard_car" route="south_to_east" depart="2861.12"/>
    <vehicle id="veh_320" type="standard_car" route="south_to_east" depart="192.16"/>
    <vehicle id="veh_321" type="standard_car" route="west_to_east" depart="1198.92"/>
    <vehicle id="veh_322" type="standard_car" route="north_to_east" depart="947.02"/>
    <vehicle id="veh_323" type="standard_car" route="north_to_south" depart="3111.54"/>
    <vehicle id="veh_324" type="standard_car" route="north_to_west" depart="2423.09"/>
    <vehicle id="veh_325" type="standard_car" route="south_to_west" depart="1389.36"/>
    <vehicle id="veh_326" type="standard_car" route="south_to_north" depart="259.20"/>
    <vehicle id="veh_327" type="standard_car" route="south_to_north" depart="2966.80"/>
    <vehicle id="veh_328" type="standard_car" route="east_to_west" depart="174.85"/>
    <vehicle id="veh_329" type="standard_car" route="west_to_north" depart="2238.73"/>
    <vehicle id="veh_330" type="standard_car" route="west_to_east" depart="1804.54"/>
    <vehicle id="veh_331" type="standard_car" route="east_to_south" depart="2575.26"/>
    <vehicle id="veh_332" type="standard_car" route="north_to_west" depart="2004.16"/>
    <vehicle id="veh_333" type="standard_car" route="west_to_north" depart="2307.25"/>
    <vehicle id="veh_334" type="standard_car" route="east_to_north" depart="3408.16"/>
    <vehicle id="veh_335" type="standard_car" route="south_to_north" depart="2900.12"/>
    <vehicle id="veh_336" type="standard_car" route="west_to_south" depart="2940.75"/>
    <vehicle id="veh_337" type="standard_car" route="west_to_north" depart="1333.52"/>