<?xml version="1.0" encoding="UTF-8"?>
<routes>
    <vType id="standard_car" accel="0.8" decel="4.5" sigma="0.5" length="5" minGap="2.5" maxSpeed="16.67" guiShape="passenger"/>

    <route id="north_to_south" edges="N2TL TL2S"/>
    <route id="north_to_east" edges="N2TL TL2E"/>
    <route id="north_to_west" edges="N2TL TL2W"/>
    <route id="south_to_north" edges="S2TL TL2N"/>
    <route id="south_to_west" edges="S2TL TL2W"/>
    <route id="south_to_east" edges="S2TL TL2E"/>
    <route id="east_to_west" edges="E2TL TL2W"/>
    <route id="east_to_north" edges="E2TL TL2N"/>
    <route id="east_to_south" edges="E2TL TL2S"/>
    <route id="west_to_east" edges="W2TL TL2E"/>
    <route id="west_to_south" edges="W2TL TL2S"/>
    <route id="west_to_north" edges="W2TL TL2N"/>

    <vehicle id="veh_0" type="standard_car" route="north_to_south" depart="1859.64"/>
    <vehicle id="veh_1" type="standard_car" route="east_to_west" depart="834.35"/>
    <vehicle id="veh_2" type="standard_car" route="north_to_west" depart="40.55"/>
    <vehicle id="veh_3" type="standard_car" route="south_to_west" depart="1260.60"/>
    <vehicle id="veh_4" type="standard_car" route="south_to_west" depart="2793.89"/>
    <vehicle id="veh_5" type="standard_car" route="south_to_east" depart="3527.67"/>
    <vehicle id="veh_6" type="standard_car" route="north_to_south" depart="3586.88"/>
    <vehicle id="veh_7" type="standard_car" route="east_to_north" depart="103.71"/>
    <vehicle id="veh_8" type="standard_car" route="west_to_south" depart="2995.94"/>
    <vehicle id="veh_9" type="standard_car" route="east_to_west" depart="2063.44"/>
    <vehicle id="veh_10" type="standard_car" route="north_to_west" depart="3065.75"/>
    <vehicle id="veh_11" type="standard_car" route="south_to_north" depart="2535.99"/>
    <vehicle id="veh_12" type="standard_car" route="east_to_west" depart="616.68"/>
    <vehicle id="veh_13" type="standard_car" route="west_to_east" depart="2653.08"/>
    <vehicle id="veh_14" type="standard_car" route="north_to_west" depart="2382.32"/>
    <vehicle id="veh_15" type="standard_car" route="south_to_west" depart="1530.99"/>
    <vehicle id="veh_16" type="standard_car" route="west_to_north" depart="113.45"/>
    <vehicle id="veh_17" type="standard_car" route="east_to_north" depart="1343.45"/>
    <vehicle id="veh_18" type="standard_car" route="west_to_east" depart="2051.97"/>
    <vehicle id="veh_19" type="standard_car" route="south_to_west" depart="911.54"/>
    <vehicle id="veh_20" type="standard_car" route="west_to_south" depart="2844.20"/>
    <vehicle id="veh_21" type="standard_car" route="east_to_north" depart="2070.28"/>
    <vehicle id="veh_22" type="standard_car" route="north_to_south" depart="1456.96"/>
    <vehicle id="veh_23" type="standard_car" route="east_to_west" depart="3062.61"/>
    <vehicle id="veh_24" type="standard_car" route="east_to_south" depart="1378.53"/>
    <vehicle id="veh_25" type="standard_car" route="north_to_west" depart="1865.98"/>
    <vehicle id="veh_26" type="standard_car" route="south_to_west" depart="1304.46"/>
    <vehicle id="veh_27" type="standard_car" route="north_to_west" depart="2113.98"/>
    <vehicle id="veh_28" type="standard_car" route="east_to_south" depart="2398.79"/>
    <vehicle id="veh_29" type="standard_car" route="west_to_south" depart="1516.03"/>
    <vehicle id="veh_30" type="standard_car" route="west_to_east" depart="2730.48"/>
    <vehicle id="veh_31" type="standard_car" route="west_to_north" depart="2605.09"/>
    <vehicle id="veh_32" type="standard_car" route="east_to_south" depart="822.14"/>
    <vehicle id="veh_33" type="standard_car" route="south_to_east" depart="3259.65"/>
    <vehicle id="veh_34" type="standard_car" route="south_to_west" depart="1584.92"/>
    <vehicle id="veh_35" type="standard_car" route="east_to_south" depart="912.09"/>
    <vehicle id="veh_36" type="standard_car" route="east_to_west" depart="3292.00"/>
    <vehicle id="veh_37" type="standard_car" route="south_to_east" depart="3241.68"/>
    <vehicle id="veh_38" type="standard_car" route="west_to_north" depart="1348.42"/>
    <vehicle id="veh_39" type="standard_car" route="north_to_west" depart="398.99"/>
    <vehicle id="veh_40" type="standard_car" route="north_to_west" depart="3304.95"/>
    <vehicle id="veh_41" type="standard_car" route="south_to_north" depart="927.46"/>
    <vehicle id="veh_42" type="standard_car" route="west_to_east" depart="1310.15"/>
    <vehicle id="veh_43" type="standard_car" route="north_to_south" depart="865.26"/>
    <vehicle id="veh_44" type="standard_car" route="west_to_north" depart="1304.32"/>
    <vehicle id="veh_45" type="standard_car" route="north_to_south" depart="3395.04"/>
    <vehicle id="veh_46" type="standard_car" route="east_to_north" depart="3270.20"/>
    <vehicle id="veh_47" type="standard_car" route="west_to_south" depart="1856.00"/>
    <vehicle id="veh_48" type="standard_car" route="south_to_north" depart="2355.07"/>
    <vehicle id="veh_49" type="standard_car" route="east_to_south" depart="1972.52"/>
    <vehicle id="veh_50" type="standard_car" route="north_to_south" depart="893.31"/>
    <vehicle id="veh_51" type="standard_car" route="north_to_west" depart="1607.24"/>
    <vehicle id="veh_52" type="standard_car" route="east_to_south" depart="2090.39"/>
    <vehicle id="veh_53" type="standard_car" route="east_to_south" depart="3019.85"/>
    <vehicle id="veh_54" type="standard_car" route="south_to_west" depart="2532.72"/>
    <vehicle id="veh_55" type="standard_car" route="north_to_east" depart="1158.38"/>
    <vehicle id="veh_56" type="standard_car" route="east_to_south" depart="1426.22"/>
    <vehicle id="veh_57" type="standard_car" route="north_to_south" depart="1102.18"/>
    <vehicle id="veh_58" type="standard_car" route="north_to_west" depart="895.10"/>
    <vehicle id="veh_59" type="standard_car" route="north_to_west" depart="350.65"/>
    <vehicle id="veh_60" type="standard_car" route="west_to_east" depart="750.90"/>
    <vehicle id="veh_61" type="standard_car" route="west_to_north" depart="1726.50"/>
    <vehicle id="veh_62" type="standard_car" route="west_to_east" depart="2781.27"/>
    <vehicle id="veh_63" type="standard_car" route="north_to_east" depart="997.47"/>
    <vehicle id="veh_64" type="standard_car" route="north_to_east" depart="2421.38"/>
    <vehicle id="veh_65" type="standard_car" route="east_to_north" depart="1452.92"/>
    <vehicle id="veh_66" type="standard_car" route="south_to_west" depart="75.72"/>
    <vehicle id="veh_67" type="standard_car" route="south_to_east" depart="732.64"/>
    <vehicle id="veh_68" type="standard_car" route="east_to_south" depart="3056.28"/>
    <vehicle id="veh_69" type="standard_car" route="west_to_north" depart="1692.55"/>
    <vehicle id="veh_70" type="standard_car" route="east_to_north" depart="3380.81"/>
    <vehicle id="veh_71" type="standard_car" route="west_to_east" depart="1323.78"/>
    <vehicle id="veh_72" type="standard_car" route="south_to_west" depart="676.50"/>
    <vehicle id="veh_73" type="standard_car" route="south_to_east" depart="3074.04"/>
    <vehicle id="veh_74" type="standard_car" route="east_to_south" depart="2236.66"/>
    <vehicle id="veh_75" type="standard_car" route="north_to_south" depart="1368.62"/>
    <vehicle id="veh_76" type="standard_car" route="south_to_west" depart="1412.84"/>
    <vehicle id="veh_77" type="standard_car" route="north_to_south" depart="3240.94"/>
    <vehicle id="veh_78" type="standard_car" route="south_to_east" depart="2565.03"/>
    <vehicle id="veh_79" type="standard_car" route="east_to_north" depart="136.81"/>
    <vehicle id="veh_80" type="standard_car" route="north_to_west" depart="316.46"/>
    <vehicle id="veh_81" type="standard_car" route="west_to_east" depart="682.87"/>
    <vehicle id="veh_82" type="standard_car" route="south_to_east" depart="975.81"/>
    <vehicle id="veh_83" type="standard_car" route="west_to_east" depart="1312.54"/>
    <vehicle id="veh_84" type="standard_car" route="north_to_south" depart="735.09"/>
    <vehicle id="veh_85" type="standard_car" route="south_to_west" depart="453.38"/>
    <vehicle id="veh_86" type="standard_car" route="west_to_east" depart="3464.79"/>
    <vehicle id="veh_87" type="standard_car" route="south_to_north" depart="2989.40"/>
    <vehicle id="veh_88" type="standard_car" route="north_to_south" depart="426.51"/>
    <vehicle id="veh_89" type="standard_car" route="east_to_south" depart="2529.41"/>
    <vehicle id="veh_90" type="standard_car" route="east_to_west" depart="2142.08"/>
    <vehicle id="veh_91" type="standard_car" route="north_to_west" depart="2505.13"/>
    <vehicle id="veh_92" type="standard_car" route="east_to_north" depart="3289.94"/>
    <vehicle id="veh_93" type="standard_car" route="north_to_west" depart="3575.74"/>
    <vehicle id="veh_94" type="standard_car" route="west_to_south" depart="2889.65"/>
    <vehicle id="veh_95" type="standard_car" route="east_to_west" depart="1813.86"/>
    <vehicle id="veh_96" type="standard_car" route="east_to_north" depart="1018.79"/>
    <vehicle id="veh_97" type="standard_car" route="south_to_north" depart="2937.87"/>
    <vehicle id="veh_98" type="standard_car" route="west_to_east" depart="1241.69"/>
    <vehicle id="veh_99" type="standard_car" route="west_to_south" depart="1266.16"/>
    <vehicle id="veh_100" type="standard_car" route="east_to_west" depart="112.05"/>
    <vehicle id="veh_101" type="standard_car" route="south_to_north" depart="125.88"/>
    <vehicle id="veh_102" type="standard_car" route="east_to_south" depart="3059.33"/>
    <vehicle id="veh_103" type="standard_car" route="west_to_south" depart="1400.64"/>
    <vehicle id="veh_104" type="standard_car" route="west_to_south" depart="1985.63"/>
    <vehicle id="veh_105" type="standard_car" route="north_to_west" depart="225.25"/>
    <vehicle id="veh_106" type="standard_car" route="north_to_south" depart="1053.29"/>
    <vehicle id="veh_107" type="standard_car" route="east_to_south" depart="3582.96"/>
    <vehicle id="veh_108" type="standard_car" route="west_to_south" depart="2429.33"/>
    <vehicle id="veh_109" type="standard_car" route="west_to_north" depart="948.57"/>
    <vehicle id="veh_110" type="standard_car" route="north_to_south" depart="2404.35"/>
    <vehicle id="veh_111" type="standard_car" route="east_to_west" depart="1961.04"/>
    <vehicle id="veh_112" type="standard_car" route="north_to_west" depart="2231.58"/>
    <vehicle id="veh_113" type="standard_car" route="north_to_west" depart="2299.04"/>
    <vehicle id="veh_114" type="standard_car" route="north_to_west" depart="1983.86"/>
    <vehicle id="veh_115" type="standard_car" route="south_to_east" depart="2889.15"/>
    <vehicle id="veh_116" type="standard_car" route="east_to_west" depart="3071.31"/>
    <vehicle id="veh_117" type="standard_car" route="east_to_west" depart="3508.74"/>
    <vehicle id="veh_118" type="standard_car" route="south_to_west" depart="2384.38"/>
    <vehicle id="veh_119" type="standard_car" route="south_to_north" depart="1346.12"/>
    <vehicle id="veh_120" type="standard_car" route="west_to_east" depart="44.90"/>
    <vehicle id="veh_121" type="standard_car" route="south_to_north" depart="2211.13"/>
    <vehicle id="veh_122" type="standard_car" route="south_to_north" depart="3561.92"/>
    <vehicle id="veh_123" type="standard_car" route="south_to_north" depart="770.54"/>
    <vehicle id="veh_124" type="standard_car" route="north_to_west" depart="201.42"/>
    <vehicle id="veh_125" type="standard_car" route="south_to_west" depart="2536.87"/>
    <vehicle id="veh_126" type="standard_car" route="west_to_east" depart="373.94"/>
    <vehicle id="veh_127" type="standard_car" route="south_to_north" depart="3266.60"/>
    <vehicle id="veh_128" type="standard_car" route="east_to_south" depart="2960.30"/>
    <vehicle id="veh_129" type="standard_car" route="west_to_east" depart="1535.15"/>
    <vehicle id="veh_130" type="standard_car" route="east_to_north" depart="1148.50"/>
    <vehicle id="veh_131" type="standard_car" route="east_to_south" depart="871.38"/>
    <vehicle id="veh_132" type="standard_car" route="west_to_east" depart="1392.83"/>
    <vehicle id="veh_133" type="standard_car" route="west_to_north" depart="1483.76"/>
    <vehicle id="veh_134" type="standard_car" route="east_to_south" depart="3356.20"/>
    <vehicle id="veh_135" type="standard_car" route="west_to_east" depart="2313.12"/>
    <vehicle id="veh_136" type="standard_car" route="east_to_north" depart="2216.58"/>
    <vehicle id="veh_137" type="standard_car" route="east_to_north" depart="1895.52"/>
    <vehicle id="veh_138" type="standard_car" route="south_to_west" depart="2089.24"/>
    <vehicle id="veh_139" type="standard_car" route="north_to_west" depart="2957.73"/>
    <vehicle id="veh_140" type="standard_car" route="north_to_west" depart="922.62"/>
    <vehicle id="veh_141" type="standard_car" route="east_to_north" depart="1135.05"/>
    <vehicle id="veh_142" type="standard_car" route="north_to_east" depart="2025.95"/>
    <vehicle id="veh_143" type="standard_car" route="east_to_south" depart="1844.52"/>
    <vehicle id="veh_144" type="standard_car" route="east_to_north" depart="2022.64"/>
    <vehicle id="veh_145" type="standard_car" route="south_to_north" depart="3500.50"/>
    <vehicle id="veh_146" type="standard_car" route="west_to_south" depart="1948.80"/>
    <vehicle id="veh_147" type="standard_car" route="north_to_west" depart="20.00"/>
    <vehicle id="veh_148" type="standard_car" route="west_to_east" depart="1347.75"/>
    <vehicle id="veh_149" type="standard_car" route="south_to_east" depart="2576.98"/>
    <vehicle id="veh_150" type="standard_car" route="east_to_south" depart="450.06"/>
    <vehicle id="veh_151" type="standard_car" route="south_to_north" depart="3233.64"/>
    <vehicle id="veh_152" type="standard_car" route="north_to_south" depart="659.85"/>
    <vehicle id="veh_153" type="standard_car" route="south_to_north" depart="1932.56"/>
    <vehicle id="veh_154" type="standard_car" route="north_to_west" depart="2134.25"/>
    <vehicle id="veh_155" type="standard_car" route="west_to_south" depart="2431.10"/>
    <vehicle id="veh_156" type="standard_car" route="west_to_south" depart="2408.90"/>
    <vehicle id="veh_157" type="standard_car" route="south_to_east" depart="1698.65"/>
    <vehicle id="veh_158" type="standard_car" route="east_to_south" depart="3566.71"/>
    <vehicle id="veh_159" type="standard_car" route="west_to_north" depart="64.67"/>
    <vehicle id="veh_160" type="standard_car" route="west_to_south" depart="1508.50"/>
    <vehicle id="veh_161" type="standard_car" route="north_to_west" depart="3240.14"/>
    <vehicle id="veh_162" type="standard_car" route="east_to_south" depart="3535.89"/>
    <vehicle id="veh_163" type="standard_car" route="east_to_west" depart="1004.22"/>
    <vehicle id="veh_164" type="standard_car" route="north_to_west" depart="3296.63"/>
    <vehicle id="veh_165" type="standard_car" route="north_to_east" depart="2544.67"/>
    <vehicle id="veh_166" type="standard_car" route="west_to_south" depart="2706.60"/>
    <vehicle id="veh_167" type="standard_car" route="west_to_south" depart="704.22"/>
    <vehicle id="veh_168" type="standard_car" route="south_to_east" depart="2416.17"/>
    <vehicle id="veh_169" type="standard_car" route="south_to_east" depart="3562.29"/>
    <vehicle id="veh_170" type="standard_car" route="west_to_south" depart="3512.32"/>
    <vehicle id="veh_171" type="standard_car" route="north_to_east" depart="348.79"/>
    <vehicle id="veh_172" type="standard_car" route="south_to_west" depart="3031.55"/>
    <vehicle id="veh_173" type="standard_car" route="east_to_south" depart="1231.49"/>
    <vehicle id="veh_174" type="standard_car" route="north_to_south" depart="984.32"/>
    <vehicle id="veh_175" type="standard_car" route="south_to_north" depart="2961.03"/>
    <vehicle id="veh_176" type="standard_car" route="north_to_south" depart="1105.96"/>
    <vehicle id="veh_177" type="standard_car" route="west_to_east" depart="2716.04"/>
    <vehicle id="veh_178" type="standard_car" route="east_to_west" depart="2186.92"/>
    <vehicle id="veh_179" type="standard_car" route="north_to_west" depart="3334.48"/>
    <vehicle id="veh_180" type="standard_car" route="east_to_north" depart="51.99"/>
    <vehicle id="veh_181" type="standard_car" route="east_to_south" depart="895.24"/>
    <vehicle id="veh_182" type="standard_car" route="south_to_west" depart="2626.59"/>
    <vehicle id="veh_183" type="standard_car" route="south_to_east" depart="1890.10"/>
    <vehicle id="veh_184" type="standard_car" route="north_to_south" depart="2643.15"/>
    <vehicle id="veh_185" type="standard_car" route="north_to_east" depart="1425.95"/>
    <vehicle id="veh_186" type="standard_car" route="west_to_north" depart="3144.55"/>
    <vehicle id="veh_187" type="standard_car" route="north_to_east" depart="996.10"/>
    <vehicle id="veh_188" type="standard_car" route="east_to_west" depart="8.13"/>
    <vehicle id="veh_189" type="standard_car" route="north_to_east" depart="519.42"/>
    <vehicle id="veh_190" type="standard_car" route="south_to_west" depart="2962.70"/>
    <vehicle id="veh_191" type="standard_car" route="south_to_west" depart="2262.89"/>
    <vehicle id="veh_192" type="standard_car" route="north_to_east" depart="1597.21"/>
    <vehicle id="veh_193" type="standard_car" route="south_to_west" depart="1993.98"/>
    <vehicle id="veh_194" type="standard_car" route="north_to_east" depart="393.91"/>
    <vehicle id="veh_195" type="standard_car" route="west_to_south" depart="2897.33"/>
    <vehicle id="veh_196" type="standard_car" route="south_to_north" depart="1261.94"/>
    <vehicle id="veh_197" type="standard_car" route="east_to_west" depart="2854.84"/>
    <vehicle id="veh_198" type="standard_car" route="south_to_west" depart="232.53"/>
    <vehicle id="veh_199" type="standard_car" route="west_to_north" depart="2953.14"/>
    <vehicle id="veh_200" type="standard_car" route="west_to_north" depart="2610.60"/>
    <vehicle id="veh_201" type="standard_car" route="north_to_south" depart="103.17"/>
    <vehicle id="veh_202" type="standard_car" route="south_to_east" depart="547.59"/>
    <vehicle id="veh_203" type="standard_car" route="west_to_south" depart="347.84"/>
    <vehicle id="veh_204" type="standard_car" route="east_to_south" depart="1870.36"/>
    <vehicle id="veh_205" type="standard_car" route="east_to_south" depart="1544.67"/>
    <vehicle id="veh_206" type="standard_car" route="south_to_north" depart="715.63"/>
    <vehicle id="veh_207" type="standard_car" route="south_to_east" depart="3393.25"/>
    <vehicle id="veh_208" type="standard_car" route="west_to_south" depart="1935.68"/>
    <vehicle id="veh_209" type="standard_car" route="west_to_south" depart="1287.90"/>
    <vehicle id="veh_210" type="standard_car" route="east_to_north" depart="2387.95"/>
    <vehicle id="veh_211" type="standard_car" route="south_to_east" depart="663.63"/>
    <vehicle id="veh_212" type="standard_car" route="east_to_south" depart="2347.47"/>
    <vehicle id="veh_213" type="standard_car" route="west_to_east" depart="2827.93"/>
    <vehicle id="veh_214" type="standard_car" route="east_to_north" depart="1252.77"/>
    <vehicle id="veh_215" type="standard_car" route="east_to_north" depart="2693.17"/>
    <vehicle id="veh_216" type="standard_car" route="west_to_east" depart="1388.33"/>
    <vehicle id="veh_217" type="standard_car" route="south_to_east" depart="3396.21"/>
    <vehicle id="veh_218" type="standard_car" route="north_to_east" depart="3196.09"/>
    <vehicle id="veh_219" type="standard_car" route="west_to_east" depart="367.43"/>
    <vehicle id="veh_220" type="standard_car" route="east_to_south" depart="2740.61"/>
    <vehicle id="veh_221" type="standard_car" route="east_to_west" depart="642.46"/>
    <vehicle id="veh_222" type="standard_car" route="east_to_north" depart="1581.36"/>
    <vehicle id="veh_223" type="standard_car" route="north_to_south" depart="3473.93"/>
    <vehicle id="veh_224" type="standard_car" route="east_to_south" depart="272.37"/>
    <vehicle id="veh_225" type="standard_car" route="south_to_north" depart="523.15"/>
    <vehicle id="veh_226" type="standard_car" route="west_to_north" depart="618.39"/>
    <vehicle id="veh_227" type="standard_car" route="west_to_south" depart="53.54"/>
    <vehicle id="veh_228" type="standard_car" route="south_to_east" depart="2201.20"/>
    <vehicle id="veh_229" type="standard_car" route="west_to_east" depart="2560.20"/>
    <vehicle id="veh_230" type="standard_car" route="south_to_west" depart="1278.29"/>
    <vehicle id="veh_231" type="standard_car" route="east_to_north" depart="2191.76"/>
    <vehicle id="veh_232" type="standard_car" route="south_to_east" depart="640.52"/>
    <vehicle id="veh_233" type="standard_car" route="north_to_west" depart="1549.04"/>
    <vehicle id="veh_234" type="standard_car" route="east_to_south" depart="202.65"/>
    <vehicle id="veh_235" type="standard_car" route="east_to_north" depart="3543.47"/>
    <vehicle id="veh_236" type="standard_car" route="west_to_north" depart="3051.36"/>
    <vehicle id="veh_237" type="standard_car" route="north_to_east" depart="3147.93"/>
    <vehicle id="veh_238" type="standard_car" route="north_to_east" depart="516.92"/>
    <vehicle id="veh_239" type="standard_car" route="west_to_east" depart="1986.36"/>
    <vehicle id="veh_240" type="standard_car" route="east_to_south" depart="2640.74"/>
    <vehicle id="veh_241" type="standard_car" route="north_to_west" depart="3113.06"/>
    <vehicle id="veh_242" type="standard_car" route="west_to_east" depart="1960.47"/>
    <vehicle id="veh_243" type="standard_car" route="east_to_west" depart="752.19"/>
    <vehicle id="veh_244" type="standard_car" route="east_to_north" depart="310.10"/>
    <vehicle id="veh_245" type="standard_car" route="east_to_west" depart="1385.71"/>
    <vehicle id="veh_246" type="standard_car" route="north_to_west" depart="3145.93"/>
    <vehicle id="veh_247" type="standard_car" route="south_to_north" depart="1035.28"/>
    <vehicle id="veh_248" type="standard_car" route="east_to_south" depart="964.43"/>
    <vehicle id="veh_249" type="standard_car" route="north_to_west" depart="2901.26"/>
    <vehicle id="veh_250" type="standard_car" route="south_to_west" depart="2780.66"/>
    <vehicle id="veh_251" type="standard_car" route="north_to_south" depart="79.67"/>
    <vehicle id="veh_252" type="standard_car" route="north_to_east" depart="2476.34"/>
    <vehicle id="veh_253" type="standard_car" route="north_to_east" depart="3458.88"/>
    <vehicle id="veh_254" type="standard_car" route="south_to_north" depart="2343.07"/>
    <vehicle id="veh_255" type="standard_car" route="north_to_west" depart="3083.65"/>
    <vehicle id="veh_256" type="standard_car" route="west_to_south" depart="180.90"/>
    <vehicle id="veh_257" type="standard_car" route="west_to_south" depart="2062.89"/>
    <vehicle id="veh_258" type="standard_car" route="east_to_south" depart="2104.44"/>
    <vehicle id="veh_259" type="standard_car" route="south_to_north" depart="1321.45"/>
    <vehicle id="veh_260" type="standard_car" route="north_to_east" depart="176.61"/>
    <vehicle id="veh_261" type="standard_car" route="east_to_west" depart="3423.96"/>
    <vehicle id="veh_262" type="standard_car" route="west_to_north" depart="1762.29"/>
    <vehicle id="veh_263" type="standard_car" route="west_to_north" depart="3528.99"/>
    <vehicle id="veh_264" type="standard_car" route="north_to_west" depart="2254.61"/>
    <vehicle id="veh_265" type="standard_car" route="south_to_north" depart="1798.94"/>
    <vehicle id="veh_266" type="standard_car" route="west_to_east" depart="3457.29"/>
    <vehicle id="veh_267" type="standard_car" route="west_to_north" depart="1261.99"/>
    <vehicle id="veh_268" type="standard_car" route="east_to_north" depart="583.76"/>
    <vehicle id="veh_269" type="standard_car" route="north_to_east" depart="990.64"/>
    <vehicle id="veh_270" type="standard_car" route="north_to_west" depart="1099.89"/>
    <vehicle id="veh_271" type="standard_car" route="south_to_north" depart="353.80"/>
    <vehicle id="veh_272" type="standard_car" route="east_to_north" depart="1806.76"/>
    <vehicle id="veh_273" type="standard_car" route="west_to_east" depart="2682.06"/>
    <vehicle id="veh_274" type="standard_car" route="south_to_west" depart="3072.55"/>
    <vehicle id="veh_275" type="standard_car" route="west_to_north" depart="55.00"/>
    <vehicle id="veh_276" type="standard_car" route="north_to_south" depart="354.85"/>
    <vehicle id="veh_277" type="standard_car" route="east_to_south" depart="2490.21"/>
    <vehicle id="veh_278" type="standard_car" route="south_to_west" depart="2947.31"/>
    <vehicle id="veh_279" type="standard_car" route="west_to_east" depart="2859.36"/>
    <vehicle id="veh_280" type="standard_car" route="north_to_east" depart="2666.31"/>
    <vehicle id="veh_281" type="standard_car" route="north_to_east" depart="1391.06"/>
    <vehicle id="veh_282" type="standard_car" route="north_to_east" depart="1976.68"/>
    <vehicle id="veh_283" type="standard_car" route="east_to_west" depart="2918.01"/>
    <vehicle id="veh_284" type="standard_car" route="south_to_west" depart="660.97"/>
    <vehicle id="veh_285" type="standard_car" route="east_to_north" depart="3118.80"/>
    <vehicle id="veh_286" type="standard_car" route="north_to_south" depart="2125.41"/>
    <vehicle id="veh_287" type="standard_car" route="south_to_east" depart="2852.58"/>
    <vehicle id="veh_288" type="standard_car" route="east_to_west" depart="2321.94"/>
    <vehicle id="veh_289" type="standard_car" route="west_to_east" depart="395.14"/>
    <vehicle id="veh_290" type="standard_car" route="south_to_north" depart="2870.24"/>
    <vehicle id="veh_291" type="standard_car" route="north_to_west" depart="3104.09"/>
    <vehicle id="veh_292" type="standard_car" route="west_to_south" depart="2987.63"/>
    <vehicle id="veh_293" type="standard_car" route="east_to_south" depart="289.09"/>
    <vehicle id="veh_294" type="standard_car" route="north_to_west" depart="3062.59"/>
    <vehicle id="veh_295" type="standard_car" route="east_to_north" depart="3481.29"/>
    <vehicle id="veh_296" type="standard_car" route="south_to_west" depart="2451.92"/>
    <vehicle id="veh_297" type="standard_car" route="east_to_south" depart="1238.20"/>
    <vehicle id="veh_298" type="standard_car" route="south_to_east" depart="3431.78"/>
    <vehicle id="veh_299" type="standard_car" route="west_to_south" depart="923.43"/>
    <vehicle id="veh_300" type="standard_car" route="north_to_east" depart="609.54"/>
    <vehicle id="veh_301" type="standard_car" route="north_to_west" depart="51.34"/>
    <vehicle id="veh_302" type="standard_car" route="west_to_east" depart="1997.00"/>
    <vehicle id="veh_303" type="standard_car" route="east_to_south" depart="1770.12"/>
    <vehicle id="veh_304" type="standard_car" route="east_to_north" depart="1340.61"/>
    <vehicle id="veh_305" type="standard_car" route="north_to_east" depart="1314.50"/>
    <vehicle id="veh_306" type="standard_car" route="north_to_south" depart="3125.40"/>
    <vehicle id="veh_307" type="standard_car" route="north_to_west" depart="2434.82"/>
    <vehicle id="veh_308" type="standard_car" route="south_to_north" depart="1303.71"/>
    <vehicle id="veh_309" type="standard_car" route="west_to_south" depart="613.16"/>
    <vehicle id="veh_310" type="standard_car" route="west_to_north" depart="1910.21"/>
    <vehicle id="veh_311" type="standard_car" route="north_to_east" depart="3397.72"/>
    <vehicle id="veh_312" type="standard_car" route="east_to_north" depart="2714.74"/>
    <vehicle id="veh_313" type="standard_car" route="east_to_south" depart="425.44"/>
    <vehicle id="veh_314" type="standard_car" route="west_to_south" depart="3382.11"/>
    <vehicle id="veh_315" type="standard_car" route="south_to_north" depart="1893.51"/>
    <vehicle id="veh_316" type="standard_car" route="north_to_west" depart="1749.16"/>
    <vehicle id="veh_317" type="standard_car" route="south_to_west" depart="1040.76"/>
    <vehicle id="veh_318" type="standard_car" route="east_to_south" depart="1987.89"/>
    <vehicle id="veh_319" type="standard_car" route="north_to_south" depart="1039.02"/>
    <vehicle id="veh_320" type="standard_car" route="east_to_south" depart="969.71"/>
    <vehicle id="veh_321" type="standard_car" route="west_to_north" depart="574.64"/>
    <vehicle id="veh_322" type="standard_car" route="west_to_south" depart="285.05"/>
    <vehicle id="veh_323" type="standard_car" route="west_to_south" depart="541.49"/>
    <vehicle id="veh_324" type="standard_car" route="west_to_east" depart="3242.25"/>
    <vehicle id="veh_325" type="standard_car" route="west_to_south" depart="947.26"/>
    <vehicle id="veh_326" type="standard_car" route="east_to_south" depart="794.75"/>
    <vehicle id="veh_327" type="standard_car" route="south_to_west" depart="2336.09"/>
    <vehicle id="veh_328" type="standard_car" route="north_to_west" depart="697.86"/>
    <vehicle id="veh_329" type="standard_car" route="south_to_west" depart="2311.72"/>
    <vehicle id="veh_330" type="standard_car" route="north_to_south" depart="1864.87"/>
    <vehicle id="veh_331" type="standard_car" route="west_to_north" depart="3399.51"/>
    <vehicle id="veh_332" type="standard_car" route="east_to_south" depart="273.78"/>
    <vehicle id="veh_333" type="standard_car" route="west_to_north" depart="2183.86"/>
    <vehicle id="veh_334" type="standard_car" route="south_to_west" depart="2237.80"/>
    <vehicle id="veh_335" type="standard_car" route="west_to_east" depart="3164.29"/>
    <vehicle id="veh_336" type="standard_car" route="west_to_north" depart="1467.63"/>
    <vehicle id="veh_337" type="standard_car" route="west_to_south" depart="134.90"/>