<?xml version="1.0" encoding="UTF-8"?>
<routes>
    <vType id="car" accel="2.6" decel="4.5" sigma="0.5" length="5" minGap="2.5" maxSpeed="13.89" guiShape="passenger"/>

    <route id="north_south" edges="N2TL TL2S"/>
    <route id="north_east" edges="N2TL TL2E"/>
    <route id="north_west" edges="N2TL TL2W"/>
    <route id="south_north" edges="S2TL TL2N"/>
    <route id="south_east" edges="S2TL TL2E"/>
    <route id="south_west" edges="S2TL TL2W"/>
    <route id="east_north" edges="E2TL TL2N"/>
    <route id="east_south" edges="E2TL TL2S"/>
    <route id="east_west" edges="E2TL TL2W"/>
    <route id="west_north" edges="W2TL TL2N"/>
    <route id="west_south" edges="W2TL TL2S"/>
    <route id="west_east" edges="W2TL TL2E"/>

    <vehicle id="veh_0" type="car" route="east_north" depart="8.80"/>
    <vehicle id="veh_1" type="car" route="north_east" depart="18.08"/>
    <vehicle id="veh_2" type="car" route="north_west" depart="19.21"/>
    <vehicle id="veh_3" type="car" route="east_south" depart="22.19"/>
    <vehicle id="veh_4" type="car" route="west_south" depart="23.08"/>
    <vehicle id="veh_5" type="car" route="east_north" depart="30.74"/>
    <vehicle id="veh_6" type="car" route="south_west" depart="31.24"/>
    <vehicle id="veh_7" type="car" route="north_west" depart="31.55"/>
    <vehicle id="veh_8" type="car" route="south_east" depart="40.95"/>
    <vehicle id="veh_9" type="car" route="east_west" depart="45.75"/>
    <vehicle id="veh_10" type="car" route="east_west" depart="51.92"/>
    <vehicle id="veh_11" type="car" route="east_west" depart="55.80"/>
    <vehicle id="veh_12" type="car" route="east_south" depart="56.00"/>
    <vehicle id="veh_13" type="car" route="south_east" depart="56.42"/>
    <vehicle id="veh_14" type="car" route="west_north" depart="58.90"/>
    <vehicle id="veh_15" type="car" route="west_south" depart="59.16"/>
    <vehicle id="veh_16" type="car" route="east_west" depart="63.85"/>
    <vehicle id="veh_17" type="car" route="south_west" depart="68.81"/>
    <vehicle id="veh_18" type="car" route="south_west" depart="72.98"/>
    <vehicle id="veh_19" type="car" route="south_north" depart="81.30"/>
    <vehicle id="veh_20" type="car" route="north_south" depart="82.79"/>
    <vehicle id="veh_21" type="car" route="south_west" depart="86.09"/>
    <vehicle id="veh_22" type="car" route="west_south" depart="86.93"/>
    <vehicle id="veh_23" type="car" route="north_east" depart="87.01"/>
    <vehicle id="veh_24" type="car" route="south_east" depart="87.32"/>
    <vehicle id="veh_25" type="car" route="west_north" depart="91.42"/>
    <vehicle id="veh_26" type="car" route="north_west" depart="91.72"/>
    <vehicle id="veh_27" type="car" route="east_west" depart="97.47"/>
    <vehicle id="veh_28" type="car" route="south_north" depart="103.58"/>
    <vehicle id="veh_29" type="car" route="north_south" depart="105.08"/>
    <vehicle id="veh_30" type="car" route="south_west" depart="107.97"/>
    <vehicle id="veh_31" type="car" route="west_north" depart="118.98"/>
    <vehicle id="veh_32" type="car" route="east_north" depart="123.56"/>
    <vehicle id="veh_33" type="car" route="east_south" depart="127.33"/>
    <vehicle id="veh_34" type="car" route="south_east" depart="128.06"/>
    <vehicle id="veh_35" type="car" route="north_west" depart="131.66"/>
    <vehicle id="veh_36" type="car" route="west_south" depart="133.22"/>
    <vehicle id="veh_37" type="car" route="south_east" depart="133.55"/>
    <vehicle id="veh_38" type="car" route="east_west" depart="137.05"/>
    <vehicle id="veh_39" type="car" route="west_east" depart="145.14"/>
    <vehicle id="veh_40" type="car" route="north_east" depart="145.26"/>
    <vehicle id="veh_41" type="car" route="north_east" depart="151.09"/>
    <vehicle id="veh_42" type="car" route="south_east" depart="162.18"/>
    <vehicle id="veh_43" type="car" route="west_south" depart="168.71"/>
    <vehicle id="veh_44" type="car" route="north_west" depart="172.58"/>
    <vehicle id="veh_45" type="car" route="south_east" depart="173.12"/>
    <vehicle id="veh_46" type="car" route="west_east" depart="175.56"/>
    <vehicle id="veh_47" type="car" route="south_west" depart="187.59"/>
    <vehicle id="veh_48" type="car" route="east_north" depart="189.88"/>
    <vehicle id="veh_49" type="car" route="south_west" depart="198.24"/>
    <vehicle id="veh_50" type="car" route="north_east" depart="201.21"/>
    <vehicle id="veh_51" type="car" route="west_east" depart="202.66"/>
    <vehicle id="veh_52" type="car" route="north_west" depart="207.33"/>
    <vehicle id="veh_53" type="car" route="west_east" depart="211.03"/>
    <vehicle id="veh_54" type="car" route="east_south" depart="215.53"/>
    <vehicle id="veh_55" type="car" route="north_west" depart="230.87"/>
    <vehicle id="veh_56" type="car" route="north_south" depart="233.06"/>
    <vehicle id="veh_57" type="car" route="north_east" depart="235.01"/>
    <vehicle id="veh_58" type="car" route="south_west" depart="240.81"/>
    <vehicle id="veh_59" type="car" route="west_north" depart="243.05"/>
    <vehicle id="veh_60" type="car" route="east_west" depart="247.52"/>
    <vehicle id="veh_61" type="car" route="west_south" depart="252.11"/>
    <vehicle id="veh_62" type="car" route="south_west" depart="256.84"/>
    <vehicle id="veh_63" type="car" route="east_west" depart="258.93"/>
    <vehicle id="veh_64" type="car" route="east_south" depart="263.61"/>
    <vehicle id="veh_65" type="car" route="south_east" depart="266.24"/>
    <vehicle id="veh_66" type="car" route="east_south" depart="274.14"/>
    <vehicle id="veh_67" type="car" route="south_east" depart="278.07"/>
    <vehicle id="veh_68" type="car" route="north_east" depart="281.04"/>
    <vehicle id="veh_69" type="car" route="south_west" depart="288.27"/>
    <vehicle id="veh_70" type="car" route="west_east" depart="298.93"/>
    <vehicle id="veh_71" type="car" route="south_west" depart="299.09"/>
    <vehicle id="veh_72" type="car" route="west_north" depart="303.61"/>
    <vehicle id="veh_73" type="car" route="south_west" depart="306.63"/>
    <vehicle id="veh_74" type="car" route="west_north" depart="308.62"/>
    <vehicle id="veh_75" type="car" route="west_east" depart="317.31"/>
    <vehicle id="veh_76" type="car" route="south_north" depart="320.40"/>
    <vehicle id="veh_77" type="car" route="south_west" depart="321.37"/>
    <vehicle id="veh_78" type="car" route="west_east" depart="322.16"/>
    <vehicle id="veh_79" type="car" route="west_south" depart="324.68"/>
    <vehicle id="veh_80" type="car" route="south_north" depart="326.87"/>
    <vehicle id="veh_81" type="car" route="south_north" depart="328.40"/>
    <vehicle id="veh_82" type="car" route="east_west" depart="330.81"/>
    <vehicle id="veh_83" type="car" route="west_east" depart="331.42"/>
    <vehicle id="veh_84" type="car" route="west_east" depart="331.86"/>
    <vehicle id="veh_85" type="car" route="south_north" depart="335.47"/>
    <vehicle id="veh_86" type="car" route="west_east" depart="339.52"/>
    <vehicle id="veh_87" type="car" route="east_west" depart="341.34"/>
    <vehicle id="veh_88" type="car" route="north_south" depart="351.30"/>
    <vehicle id="veh_89" type="car" route="west_east" depart="352.81"/>
    <vehicle id="veh_90" type="car" route="south_north" depart="356.82"/>
    <vehicle id="veh_91" type="car" route="east_north" depart="370.19"/>
    <vehicle id="veh_92" type="car" route="north_south" depart="370.85"/>
    <vehicle id="veh_93" type="car" route="south_east" depart="372.31"/>
    <vehicle id="veh_94" type="car" route="east_west" depart="379.37"/>
    <vehicle id="veh_95" type="car" route="west_south" depart="379.38"/>
    <vehicle id="veh_96" type="car" route="east_west" depart="382.26"/>
    <vehicle id="veh_97" type="car" route="north_south" depart="389.43"/>
    <vehicle id="veh_98" type="car" route="west_north" depart="391.91"/>
    <vehicle id="veh_99" type="car" route="west_east" depart="393.11"/>
    <vehicle id="veh_100" type="car" route="east_south" depart="394.17"/>
    <vehicle id="veh_101" type="car" route="south_west" depart="397.03"/>
    <vehicle id="veh_102" type="car" route="north_east" depart="400.18"/>
    <vehicle id="veh_103" type="car" route="west_south" depart="404.11"/>
    <vehicle id="veh_104" type="car" route="east_west" depart="404.30"/>
    <vehicle id="veh_105" type="car" route="south_west" depart="404.61"/>
    <vehicle id="veh_106" type="car" route="west_north" depart="409.82"/>
    <vehicle id="veh_107" type="car" route="south_west" depart="412.78"/>
    <vehicle id="veh_108" type="car" route="west_north" depart="417.34"/>
    <vehicle id="veh_109" type="car" route="south_east" depart="419.44"/>
    <vehicle id="veh_110" type="car" route="north_west" depart="421.77"/>
    <vehicle id="veh_111" type="car" route="west_south" depart="422.92"/>
    <vehicle id="veh_112" type="car" route="south_east" depart="422.95"/>
    <vehicle id="veh_113" type="car" route="south_west" depart="424.96"/>
    <vehicle id="veh_114" type="car" route="south_east" depart="425.24"/>
    <vehicle id="veh_115" type="car" route="west_south" depart="429.13"/>
    <vehicle id="veh_116" type="car" route="south_north" depart="431.80"/>
    <vehicle id="veh_117" type="car" route="north_south" depart="438.04"/>
    <vehicle id="veh_118" type="car" route="west_east" depart="443.87"/>
    <vehicle id="veh_119" type="car" route="north_west" depart="446.38"/>
    <vehicle id="veh_120" type="car" route="south_north" depart="448.45"/>
    <vehicle id="veh_121" type="car" route="east_west" depart="449.04"/>
    <vehicle id="veh_122" type="car" route="west_south" depart="451.50"/>
    <vehicle id="veh_123" type="car" route="north_south" depart="451.99"/>
    <vehicle id="veh_124" type="car" route="south_north" depart="456.46"/>
    <vehicle id="veh_125" type="car" route="west_east" depart="461.16"/>
    <vehicle id="veh_126" type="car" route="east_south" depart="470.99"/>
    <vehicle id="veh_127" type="car" route="east_south" depart="476.67"/>
    <vehicle id="veh_128" type="car" route="west_south" depart="480.69"/>
    <vehicle id="veh_129" type="car" route="east_north" depart="485.08"/>
    <vehicle id="veh_130" type="car" route="north_east" depart="487.64"/>
    <vehicle id="veh_131" type="car" route="east_south" depart="493.01"/>
    <vehicle id="veh_132" type="car" route="south_north" depart="506.57"/>
    <vehicle id="veh_133" type="car" route="east_south" depart="513.94"/>
    <vehicle id="veh_134" type="car" route="south_north" depart="515.56"/>
    <vehicle id="veh_135" type="car" route="north_west" depart="517.40"/>
    <vehicle id="veh_136" type="car" route="south_east" depart="520.49"/>
    <vehicle id="veh_137" type="car" route="south_west" depart="521.91"/>
    <vehicle id="veh_138" type="car" route="north_west" depart="522.90"/>
    <vehicle id="veh_139" type="car" route="west_north" depart="523.92"/>
    <vehicle id="veh_140" type="car" route="south_west" depart="524.21"/>
    <vehicle id="veh_141" type="car" route="south_north" depart="525.87"/>
    <vehicle id="veh_142" type="car" route="south_west" depart="529.11"/>
    <vehicle id="veh_143" type="car" route="north_west" depart="529.67"/>
    <vehicle id="veh_144" type="car" route="east_south" depart="529.70"/>
    <vehicle id="veh_145" type="car" route="east_north" depart="542.94"/>
    <vehicle id="veh_146" type="car" route="south_north" depart="544.19"/>
    <vehicle id="veh_147" type="car" route="east_north" depart="544.40"/>
    <vehicle id="veh_148" type="car" route="west_east" depart="544.90"/>
    <vehicle id="veh_149" type="car" route="south_east" depart="545.97"/>
    <vehicle id="veh_150" type="car" route="south_west" depart="546.82"/>
    <vehicle id="veh_151" type="car" route="east_south" depart="549.71"/>
    <vehicle id="veh_152" type="car" route="north_east" depart="556.29"/>
    <vehicle id="veh_153" type="car" route="north_south" depart="558.03"/>
    <vehicle id="veh_154" type="car" route="west_north" depart="559.25"/>
    <vehicle id="veh_155" type="car" route="west_north" depart="560.65"/>
    <vehicle id="veh_156" type="car" route="south_north" depart="560.93"/>
    <vehicle id="veh_157" type="car" route="west_east" depart="566.96"/>
    <vehicle id="veh_158" type="car" route="south_west" depart="580.77"/>
    <vehicle id="veh_159" type="car" route="east_west" depart="585.65"/>
    <vehicle id="veh_160" type="car" route="west_south" depart="588.59"/>
    <vehicle id="veh_161" type="car" route="north_south" depart="597.10"/>
    <vehicle id="veh_162" type="car" route="east_west" depart="600.14"/>
    <vehicle id="veh_163" type="car" route="south_east" depart="603.01"/>
    <vehicle id="veh_164" type="car" route="east_north" depart="606.35"/>
    <vehicle id="veh_165" type="car" route="west_south" depart="615.02"/>
    <vehicle id="veh_166" type="car" route="south_east" depart="621.28"/>
    <vehicle id="veh_167" type="car" route="north_south" depart="625.98"/>
    <vehicle id="veh_168" type="car" route="south_north" depart="628.70"/>
    <vehicle id="veh_169" type="car" route="south_west" depart="642.36"/>
    <vehicle id="veh_170" type="car" route="south_north" depart="647.43"/>
    <vehicle id="veh_171" type="car" route="north_south" depart="651.27"/>
    <vehicle id="veh_172" type="car" route="east_north" depart="653.53"/>
    <vehicle id="veh_173" type="car" route="south_north" depart="660.74"/>
    <vehicle id="veh_174" type="car" route="west_north" depart="664.45"/>
    <vehicle id="veh_175" type="car" route="north_south" depart="667.60"/>
    <vehicle id="veh_176" type="car" route="west_north" depart="675.65"/>
    <vehicle id="veh_177" type="car" route="south_west" depart="677.41"/>
    <vehicle id="veh_178" type="car" route="west_north" depart="681.67"/>
    <vehicle id="veh_179" type="car" route="west_east" depart="687.85"/>
    <vehicle id="veh_180" type="car" route="east_north" depart="707.30"/>
    <vehicle id="veh_181" type="car" route="north_west" depart="711.00"/>
    <vehicle id="veh_182" type="car" route="north_east" depart="722.05"/>
    <vehicle id="veh_183" type="car" route="west_south" depart="724.14"/>
    <vehicle id="veh_184" type="car" route="north_east" depart="726.14"/>
    <vehicle id="veh_185" type="car" route="west_east" depart="728.00"/>
    <vehicle id="veh_186" type="car" route="south_west" depart="730.98"/>
    <vehicle id="veh_187" type="car" route="north_west" depart="733.43"/>
    <vehicle id="veh_188" type="car" route="west_north" depart="758.97"/>
    <vehicle id="veh_189" type="car" route="south_east" depart="759.72"/>
    <vehicle id="veh_190" type="car" route="south_east" depart="760.89"/>
    <vehicle id="veh_191" type="car" route="south_east" depart="762.56"/>
    <vehicle id="veh_192" type="car" route="west_south" depart="762.74"/>
    <vehicle id="veh_193" type="car" route="west_north" depart="764.36"/>
    <vehicle id="veh_194" type="car" route="south_north" depart="775.68"/>
    <vehicle id="veh_195" type="car" route="north_south" depart="778.20"/>
    <vehicle id="veh_196" type="car" route="west_south" depart="785.38"/>
    <vehicle id="veh_197" type="car" route="east_south" depart="788.41"/>
    <vehicle id="veh_198" type="car" route="north_south" depart="791.03"/>
    <vehicle id="veh_199" type="car" route="north_south" depart="795.96"/>
    <vehicle id="veh_200" type="car" route="west_east" depart="798.24"/>
    <vehicle id="veh_201" type="car" route="south_north" depart="798.59"/>
    <vehicle id="veh_202" type="car" route="east_south" depart="800.86"/>
    <vehicle id="veh_203" type="car" route="north_east" depart="805.14"/>
    <vehicle id="veh_204" type="car" route="west_north" depart="808.16"/>
    <vehicle id="veh_205" type="car" route="south_east" depart="809.15"/>
    <vehicle id="veh_206" type="car" route="east_west" depart="809.23"/>
    <vehicle id="veh_207" type="car" route="north_west" depart="814.77"/>
    <vehicle id="veh_208" type="car" route="east_south" depart="815.80"/>
    <vehicle id="veh_209" type="car" route="east_west" depart="819.55"/>
    <vehicle id="veh_210" type="car" route="south_west" depart="820.63"/>
    <vehicle id="veh_211" type="car" route="east_west" depart="822.12"/>
    <vehicle id="veh_212" type="car" route="north_west" depart="826.26"/>
    <vehicle id="veh_213" type="car" route="east_north" depart="832.21"/>
    <vehicle id="veh_214" type="car" route="east_south" depart="833.22"/>
    <vehicle id="veh_215" type="car" route="west_north" depart="834.70"/>
    <vehicle id="veh_216" type="car" route="east_north" depart="836.96"/>
    <vehicle id="veh_217" type="car" route="south_west" depart="840.98"/>
    <vehicle id="veh_218" type="car" route="east_north" depart="843.93"/>
    <vehicle id="veh_219" type="car" route="east_west" depart="844.39"/>
    <vehicle id="veh_220" type="car" route="west_north" depart="851.74"/>
    <vehicle id="veh_221" type="car" route="south_east" depart="859.97"/>
    <vehicle id="veh_222" type="car" route="east_west" depart="862.45"/>
    <vehicle id="veh_223" type="car" route="west_east" depart="863.34"/>
    <vehicle id="veh_224" type="car" route="west_south" depart="863.65"/>
    <vehicle id="veh_225" type="car" route="east_south" depart="865.22"/>
    <vehicle id="veh_226" type="car" route="south_east" depart="869.50"/>
    <vehicle id="veh_227" type="car" route="east_north" depart="878.76"/>
    <vehicle id="veh_228" type="car" route="east_north" depart="880.54"/>
    <vehicle id="veh_229" type="car" route="east_south" depart="886.00"/>
    <vehicle id="veh_230" type="car" route="east_west" depart="886.60"/>
    <vehicle id="veh_231" type="car" route="south_west" depart="890.14"/>
    <vehicle id="veh_232" type="car" route="west_south" depart="891.92"/>
    <vehicle id="veh_233" type="car" route="east_west" depart="893.27"/>
    <vehicle id="veh_234" type="car" route="south_east" depart="894.12"/>
    <vehicle id="veh_235" type="car" route="west_south" depart="897.57"/>
    <vehicle id="veh_236" type="car" route="south_north" depart="899.22"/>
    <vehicle id="veh_237" type="car" route="west_east" depart="901.60"/>
    <vehicle id="veh_238" type="car" route="north_south" depart="905.31"/>
    <vehicle id="veh_239" type="car" route="east_west" depart="910.21"/>
    <vehicle id="veh_240" type="car" route="west_south" depart="910.93"/>
    <vehicle id="veh_241" type="car" route="east_south" depart="911.89"/>
    <vehicle id="veh_242" type="car" route="north_west" depart="913.80"/>
    <vehicle id="veh_243" type="car" route="east_south" depart="914.33"/>
    <vehicle id="veh_244" type="car" route="north_east" depart="915.80"/>
    <vehicle id="veh_245" type="car" route="south_north" depart="917.81"/>
    <vehicle id="veh_246" type="car" route="south_north" depart="918.66"/>
    <vehicle id="veh_247" type="car" route="east_south" depart="920.34"/>
    <vehicle id="veh_248" type="car" route="west_east" depart="922.32"/>
    <vehicle id="veh_249" type="car" route="west_south" depart="924.90"/>
    <vehicle id="veh_250" type="car" route="east_west" depart="925.29"/>
    <vehicle id="veh_251" type="car" route="west_north" depart="925.59"/>
    <vehicle id="veh_252" type="car" route="north_south" depart="926.81"/>
    <vehicle id="veh_253" type="car" route="south_north" depart="928.58"/>
    <vehicle id="veh_254" type="car" route="north_south" depart="934.29"/>
    <vehicle id="veh_255" type="car" route="north_south" depart="937.80"/>
    <vehicle id="veh_256" type="car" route="west_east" depart="937.89"/>
    <vehicle id="veh_257" type="car" route="west_south" depart="940.08"/>
    <vehicle id="veh_258" type="car" route="east_north" depart="946.61"/>
    <vehicle id="veh_259" type="car" route="east_north" depart="947.79"/>
    <vehicle id="veh_260" type="car" route="south_west" depart="956.58"/>
    <vehicle id="veh_261" type="car" route="north_west" depart="962.33"/>
    <vehicle id="veh_262" type="car" route="west_north" depart="962.79"/>
    <vehicle id="veh_263" type="car" route="east_south" depart="974.41"/>
    <vehicle id="veh_264" type="car" route="north_west" depart="977.03"/>
    <vehicle id="veh_265" type="car" route="south_east" depart="977.78"/>
    <vehicle id="veh_266" type="car" route="east_south" depart="981.72"/>
    <vehicle id="veh_267" type="car" route="south_west" depart="982.68"/>
    <vehicle id="veh_268" type="car" route="east_north" depart="987.68"/>
    <vehicle id="veh_269" type="car" route="north_south" depart="989.07"/>
    <vehicle id="veh_270" type="car" route="north_east" depart="993.28"/>
    <vehicle id="veh_271" type="car" route="north_south" depart="996.98"/>
    <vehicle id="veh_272" type="car" route="west_east" depart="1018.73"/>
    <vehicle id="veh_273" type="car" route="north_west" depart="1019.18"/>
    <vehicle id="veh_274" type="car" route="south_east" depart="1021.78"/>
    <vehicle id="veh_275" type="car" route="south_east" depart="1021.92"/>
    <vehicle id="veh_276" type="car" route="east_south" depart="1026.61"/>
    <vehicle id="veh_277" type="car" route="south_west" depart="1029.77"/>
    <vehicle id="veh_278" type="car" route="south_east" depart="1034.52"/>
    <vehicle id="veh_279" type="car" route="east_north" depart="1038.54"/>
    <vehicle id="veh_280" type="car" route="east_west" depart="1042.06"/>
    <vehicle id="veh_281" type="car" route="north_west" depart="1043.62"/>
    <vehicle id="veh_282" type="car" route="west_north" depart="1044.69"/>
    <vehicle id="veh_283" type="car" route="north_east" depart="1046.21"/>
    <vehicle id="veh_284" type="car" route="east_west" depart="1047.78"/>
    <vehicle id="veh_285" type="car" route="north_west" depart="1059.12"/>
    <vehicle id="veh_286" type="car" route="west_north" depart="1059.54"/>
    <vehicle id="veh_287" type="car" route="north_west" depart="1061.55"/>
    <vehicle id="veh_288" type="car" route="south_west" depart="1063.85"/>
    <vehicle id="veh_289" type="car" route="north_east" depart="1067.34"/>
    <vehicle id="veh_290" type="car" route="west_north" depart="1073.48"/>
    <vehicle id="veh_291" type="car" route="south_north" depart="1076.53"/>
    <vehicle id="veh_292" type="car" route="south_west" depart="1077.76"/>
    <vehicle id="veh_293" type="car" route="north_west" depart="1084.57"/>
    <vehicle id="veh_294" type="car" route="north_east" depart="1089.62"/>
    <vehicle id="veh_295" type="car" route="east_south" depart="1091.44"/>
    <vehicle id="veh_296" type="car" route="west_north" depart="1093.99"/>
    <vehicle id="veh_297" type="car" route="west_north" depart="1094.78"/>
    <vehicle id="veh_298" type="car" route="east_south" depart="1097.65"/>
    <vehicle id="veh_299" type="car" route="south_north" depart="1099.04"/>
    <vehicle id="veh_300" type="car" route="west_north" depart="1099.22"/>
    <vehicle id="veh_301" type="car" route="south_east" depart="1102.96"/>
    <vehicle id="veh_302" type="car" route="south_north" depart="1103.25"/>
    <vehicle id="veh_303" type="car" route="east_north" depart="1105.88"/>
    <vehicle id="veh_304" type="car" route="east_west" depart="1108.94"/>
    <vehicle id="veh_305" type="car" route="west_east" depart="1111.29"/>
    <vehicle id="veh_306" type="car" route="east_north" depart="1115.27"/>
    <vehicle id="veh_307" type="car" route="north_south" depart="1117.47"/>
    <vehicle id="veh_308" type="car" route="north_east" depart="1117.97"/>
    <vehicle id="veh_309" type="car" route="west_north" depart="1118.25"/>
    <vehicle id="veh_310" type="car" route="south_north" depart="1120.56"/>
    <vehicle id="veh_311" type="car" route="north_south" depart="1125.71"/>
    <vehicle id="veh_312" type="car" route="east_north" depart="1127.41"/>
    <vehicle id="veh_313" type="car" route="west_south" depart="1130.57"/>
    <vehicle id="veh_314" type="car" route="north_west" depart="1131.58"/>
    <vehicle id="veh_315" type="car" route="east_south" depart="1134.75"/>
    <vehicle id="veh_316" type="car" route="south_east" depart="1135.12"/>
    <vehicle id="veh_317" type="car" route="west_east" depart="1139.74"/>
    <vehicle id="veh_318" type="car" route="south_west" depart="1140.84"/>
    <vehicle id="veh_319" type="car" route="north_east" depart="1143.79"/>
    <vehicle id="veh_320" type="car" route="east_south" depart="1151.78"/>
    <vehicle id="veh_321" type="car" route="north_south" depart="1157.31"/>
    <vehicle id="veh_322" type="car" route="north_east" depart="1157.75"/>
    <vehicle id="veh_323" type="car" route="north_west" depart="1158.48"/>
    <vehicle id="veh_324" type="car" route="west_south" depart="1172.70"/>
    <vehicle id="veh_325" type="car" route="east_west" depart="1180.07"/>
    <vehicle id="veh_326" type="car" route="east_north" depart="1180.59"/>
    <vehicle id="veh_327" type="car" route="east_west" depart="1185.57"/>
    <vehicle id="veh_328" type="car" route="north_east" depart="1191.19"/>
    <vehicle id="veh_329" type="car" route="north_west" depart="1192.20"/>
    <vehicle id="veh_330" type="car" route="north_south" depart="1200.36"/>
    <vehicle id="veh_331" type="car" route="east_south" depart="1202.26"/>
    <vehicle id="veh_332" type="car" route="north_east" depart="1203.38"/>
    <vehicle id="veh_333" type="car" route="south_east" depart="1206.13"/>
    <vehicle id="veh_334" type="car" route="west_east" depart="1208.45"/>
    <vehicle id="veh_335" type="car" route="west_east" depart="1209.25"/>
    <vehicle id="veh_336" type="car" route="west_east" depart="1211.60"/>
    <vehicle id="veh_337" type="car" route="west_south" depart="1212.89"/>
    <vehicle id="veh_338" type="car" route="south_north" depart="1216.11"/>
    <vehicle id="veh_339" type="car" route="west_south" depart="1224.85"/>
    <vehicle id="veh_340" type="car" route="south_north" depart="1225.43"/>
    <vehicle id="veh_341" type="car" route="east_west" depart="1225.69"/>
    <vehicle id="veh_342" type="car" route="south_west" depart="1229.01"/>
    <vehicle id="veh_343" type="car" route="west_south" depart="1230.04"/>
    <vehicle id="veh_344" type="car" route="north_west" depart="1235.50"/>
    <vehicle id="veh_345" type="car" route="east_west" depart="1239.73"/>
    <vehicle id="veh_346" type="car" route="west_south" depart="1244.62"/>
    <vehicle id="veh_347" type="car" route="south_north" depart="1244.82"/>
    <vehicle id="veh_348" type="car" route="east_north" depart="1250.50"/>
    <vehicle id="veh_349" type="car" route="east_north" depart="1254.19"/>
    <vehicle id="veh_350" type="car" route="east_north" depart="1255.72"/>
    <vehicle id="veh_351" type="car" route="north_west" depart="1258.12"/>
    <vehicle id="veh_352" type="car" route="north_west" depart="1261.48"/>
    <vehicle id="veh_353" type="car" route="south_north" depart="1271.11"/>
    <vehicle id="veh_354" type="car" route="east_west" depart="1273.09"/>
    <vehicle id="veh_355" type="car" route="south_north" depart="1275.53"/>
    <vehicle id="veh_356" type="car" route="east_south" depart="1276.33"/>
    <vehicle id="veh_357" type="car" route="east_north" depart="1283.31"/>
    <vehicle id="veh_358" type="car" route="north_south" depart="1283.95"/>
    <vehicle id="veh_359" type="car" route="east_north" depart="1290.30"/>
    <vehicle id="veh_360" type="car" route="east_north" depart="1290.77"/>
    <vehicle id="veh_361" type="car" route="north_south" depart="1294.28"/>
    <vehicle id="veh_362" type="car" route="west_south" depart="1298.58"/>
    <vehicle id="veh_363" type="car" route="south_east" depart="1298.95"/>
    <vehicle id="veh_364" type="car" route="west_east" depart="1299.68"/>
    <vehicle id="veh_365" type="car" route="south_west" depart="1302.94"/>
    <vehicle id="veh_366" type="car" route="south_north" depart="1309.49"/>
    <vehicle id="veh_367" type="car" route="south_north" depart="1310.01"/>
    <vehicle id="veh_368" type="car" route="north_south" depart="1319.35"/>
    <vehicle id="veh_369" type="car" route="west_east" depart="1322.85"/>
    <vehicle id="veh_370" type="car" route="north_south" depart="1323.19"/>
    <vehicle id="veh_371" type="car" route="west_east" depart="1338.82"/>
    <vehicle id="veh_372" type="car" route="east_north" depart="1342.09"/>
    <vehicle id="veh_373" type="car" route="south_west" depart="1346.14"/>
    <vehicle id="veh_374" type="car" route="west_north" depart="1358.55"/>
    <vehicle id="veh_375" type="car" route="north_south" depart="1359.59"/>
    <vehicle id="veh_376" type="car" route="east_north" depart="1361.71"/>
    <vehicle id="veh_377" type="car" route="south_west" depart="1361.77"/>
    <vehicle id="veh_378" type="car" route="east_north" depart="1362.82"/>
    <vehicle id="veh_379" type="car" route="south_east" depart="1365.47"/>
    <vehicle id="veh_380" type="car" route="south_east" depart="1377.80"/>
    <vehicle id="veh_381" type="car" route="east_south" depart="1378.76"/>
    <vehicle id="veh_382" type="car" route="south_east" depart="1378.78"/>
    <vehicle id="veh_383" type="car" route="north_west" depart="1379.39"/>
    <vehicle id="veh_384" type="car" route="west_north" depart="1386.08"/>
    <vehicle id="veh_385" type="car" route="north_west" depart="1387.98"/>
    <vehicle id="veh_386" type="car" route="east_north" depart="1388.17"/>
    <vehicle id="veh_387" type="car" route="north_west" depart="1389.28"/>
    <vehicle id="veh_388" type="car" route="south_west" depart="1393.16"/>
    <vehicle id="veh_389" type="car" route="north_south" depart="1397.79"/>
    <vehicle id="veh_390" type="car" route="west_north" depart="1399.55"/>
    <vehicle id="veh_391" type="car" route="south_west" depart="1401.24"/>
    <vehicle id="veh_392" type="car" route="west_east" depart="1402.10"/>
    <vehicle id="veh_393" type="car" route="west_south" depart="1404.49"/>
    <vehicle id="veh_394" type="car" route="west_east" depart="1405.16"/>