<?xml version="1.0" encoding="UTF-8"?>
<routes>
    <vType id="standard_car" accel="0.8" decel="4.5" sigma="0.5" length="5" minGap="2.5" maxSpeed="16.67" guiShape="passenger"/>

    <route id="north_to_south" edges="N2TL TL2S"/>
    <route id="north_to_east" edges="N2TL TL2E"/>
    <route id="north_to_west" edges="N2TL TL2W"/>
    <route id="south_to_north" edges="S2TL TL2N"/>
    <route id="south_to_west" edges="S2TL TL2W"/>
    <route id="south_to_east" edges="S2TL TL2E"/>
    <route id="east_to_west" edges="E2TL TL2W"/>
    <route id="east_to_north" edges="E2TL TL2N"/>
    <route id="east_to_south" edges="E2TL TL2S"/>
    <route id="west_to_east" edges="W2TL TL2E"/>
    <route id="west_to_south" edges="W2TL TL2S"/>
    <route id="west_to_north" edges="W2TL TL2N"/>

    <vehicle id="veh_0" type="standard_car" route="north_to_west" depart="2239.72"/>
    <vehicle id="veh_1" type="standard_car" route="west_to_south" depart="2272.23"/>
    <vehicle id="veh_2" type="standard_car" route="east_to_north" depart="978.66"/>
    <vehicle id="veh_3" type="standard_car" route="south_to_west" depart="867.17"/>
    <vehicle id="veh_4" type="standard_car" route="west_to_south" depart="282.27"/>
    <vehicle id="veh_5" type="standard_car" route="north_to_west" depart="1589.73"/>
    <vehicle id="veh_6" type="standard_car" route="north_to_south" depart="2430.13"/>
    <vehicle id="veh_7" type="standard_car" route="east_to_north" depart="3188.07"/>
    <vehicle id="veh_8" type="standard_car" route="north_to_west" depart="2293.75"/>
    <vehicle id="veh_9" type="standard_car" route="west_to_east" depart="2416.68"/>
    <vehicle id="veh_10" type="standard_car" route="north_to_south" depart="1133.31"/>
    <vehicle id="veh_11" type="standard_car" route="south_to_west" depart="1204.18"/>
    <vehicle id="veh_12" type="standard_car" route="north_to_east" depart="1471.00"/>
    <vehicle id="veh_13" type="standard_car" route="west_to_north" depart="594.76"/>
    <vehicle id="veh_14" type="standard_car" route="south_to_north" depart="2410.21"/>
    <vehicle id="veh_15" type="standard_car" route="south_to_west" depart="2329.55"/>
    <vehicle id="veh_16" type="standard_car" route="north_to_east" depart="2159.90"/>
    <vehicle id="veh_17" type="standard_car" route="south_to_north" depart="3051.60"/>
    <vehicle id="veh_18" type="standard_car" route="south_to_west" depart="1036.69"/>
    <vehicle id="veh_19" type="standard_car" route="east_to_north" depart="840.08"/>
    <vehicle id="veh_20" type="standard_car" route="west_to_north" depart="2560.94"/>
    <vehicle id="veh_21" type="standard_car" route="south_to_east" depart="2591.80"/>
    <vehicle id="veh_22" type="standard_car" route="south_to_east" depart="1270.00"/>
    <vehicle id="veh_23" type="standard_car" route="south_to_north" depart="1143.46"/>
    <vehicle id="veh_24" type="standard_car" route="east_to_south" depart="2616.81"/>
    <vehicle id="veh_25" type="standard_car" route="south_to_north" depart="3002.05"/>
    <vehicle id="veh_26" type="standard_car" route="north_to_west" depart="1125.80"/>
    <vehicle id="veh_27" type="standard_car" route="east_to_north" depart="2439.36"/>
    <vehicle id="veh_28" type="standard_car" route="east_to_west" depart="400.41"/>
    <vehicle id="veh_29" type="standard_car" route="north_to_south" depart="1505.98"/>
    <vehicle id="veh_30" type="standard_car" route="south_to_north" depart="2748.17"/>
    <vehicle id="veh_31" type="standard_car" route="east_to_west" depart="2284.94"/>
    <vehicle id="veh_32" type="standard_car" route="south_to_east" depart="958.57"/>
    <vehicle id="veh_33" type="standard_car" route="west_to_north" depart="1709.75"/>
    <vehicle id="veh_34" type="standard_car" route="south_to_west" depart="3087.93"/>
    <vehicle id="veh_35" type="standard_car" route="west_to_east" depart="1686.00"/>
    <vehicle id="veh_36" type="standard_car" route="south_to_east" depart="878.97"/>
    <vehicle id="veh_37" type="standard_car" route="south_to_west" depart="2948.15"/>
    <vehicle id="veh_38" type="standard_car" route="north_to_east" depart="2344.11"/>
    <vehicle id="veh_39" type="standard_car" route="south_to_east" depart="2892.64"/>
    <vehicle id="veh_40" type="standard_car" route="west_to_south" depart="2420.40"/>
    <vehicle id="veh_41" type="standard_car" route="east_to_west" depart="710.11"/>
    <vehicle id="veh_42" type="standard_car" route="south_to_east" depart="1061.10"/>
    <vehicle id="veh_43" type="standard_car" route="north_to_east" depart="2782.62"/>
    <vehicle id="veh_44" type="standard_car" route="east_to_north" depart="2708.34"/>
    <vehicle id="veh_45" type="standard_car" route="north_to_south" depart="285.59"/>
    <vehicle id="veh_46" type="standard_car" route="west_to_north" depart="220.50"/>
    <vehicle id="veh_47" type="standard_car" route="south_to_west" depart="2080.43"/>
    <vehicle id="veh_48" type="standard_car" route="north_to_west" depart="633.45"/>
    <vehicle id="veh_49" type="standard_car" route="south_to_north" depart="1871.02"/>
    <vehicle id="veh_50" type="standard_car" route="east_to_north" depart="2494.80"/>
    <vehicle id="veh_51" type="standard_car" route="south_to_east" depart="832.17"/>
    <vehicle id="veh_52" type="standard_car" route="north_to_south" depart="1885.11"/>
    <vehicle id="veh_53" type="standard_car" route="west_to_east" depart="1349.96"/>
    <vehicle id="veh_54" type="standard_car" route="west_to_east" depart="295.04"/>
    <vehicle id="veh_55" type="standard_car" route="north_to_east" depart="1936.01"/>
    <vehicle id="veh_56" type="standard_car" route="east_to_south" depart="148.66"/>
    <vehicle id="veh_57" type="standard_car" route="east_to_north" depart="3475.96"/>
    <vehicle id="veh_58" type="standard_car" route="south_to_east" depart="1006.24"/>
    <vehicle id="veh_59" type="standard_car" route="south_to_east" depart="2248.95"/>
    <vehicle id="veh_60" type="standard_car" route="south_to_north" depart="857.76"/>
    <vehicle id="veh_61" type="standard_car" route="east_to_north" depart="3375.31"/>
    <vehicle id="veh_62" type="standard_car" route="east_to_south" depart="3283.60"/>
    <vehicle id="veh_63" type="standard_car" route="east_to_north" depart="2046.95"/>
    <vehicle id="veh_64" type="standard_car" route="north_to_south" depart="2234.53"/>
    <vehicle id="veh_65" type="standard_car" route="north_to_east" depart="276.88"/>
    <vehicle id="veh_66" type="standard_car" route="east_to_north" depart="3044.23"/>
    <vehicle id="veh_67" type="standard_car" route="north_to_east" depart="2561.57"/>
    <vehicle id="veh_68" type="standard_car" route="east_to_west" depart="852.78"/>
    <vehicle id="veh_69" type="standard_car" route="south_to_east" depart="397.93"/>
    <vehicle id="veh_70" type="standard_car" route="south_to_north" depart="3363.83"/>
    <vehicle id="veh_71" type="standard_car" route="north_to_south" depart="3252.92"/>
    <vehicle id="veh_72" type="standard_car" route="east_to_north" depart="487.78"/>
    <vehicle id="veh_73" type="standard_car" route="east_to_west" depart="3477.46"/>
    <vehicle id="veh_74" type="standard_car" route="north_to_west" depart="2617.69"/>
    <vehicle id="veh_75" type="standard_car" route="west_to_east" depart="1972.63"/>
    <vehicle id="veh_76" type="standard_car" route="north_to_south" depart="3092.86"/>
    <vehicle id="veh_77" type="standard_car" route="east_to_west" depart="2216.72"/>
    <vehicle id="veh_78" type="standard_car" route="north_to_west" depart="3154.90"/>
    <vehicle id="veh_79" type="standard_car" route="north_to_east" depart="375.95"/>
    <vehicle id="veh_80" type="standard_car" route="north_to_south" depart="1015.31"/>
    <vehicle id="veh_81" type="standard_car" route="north_to_west" depart="2830.06"/>
    <vehicle id="veh_82" type="standard_car" route="south_to_west" depart="1860.95"/>
    <vehicle id="veh_83" type="standard_car" route="south_to_west" depart="1274.41"/>
    <vehicle id="veh_84" type="standard_car" route="east_to_west" depart="3091.29"/>
    <vehicle id="veh_85" type="standard_car" route="east_to_north" depart="694.81"/>
    <vehicle id="veh_86" type="standard_car" route="south_to_north" depart="2133.81"/>
    <vehicle id="veh_87" type="standard_car" route="south_to_north" depart="506.36"/>
    <vehicle id="veh_88" type="standard_car" route="south_to_east" depart="1548.63"/>
    <vehicle id="veh_89" type="standard_car" route="east_to_south" depart="3046.69"/>
    <vehicle id="veh_90" type="standard_car" route="south_to_east" depart="1036.13"/>
    <vehicle id="veh_91" type="standard_car" route="west_to_north" depart="1909.05"/>
    <vehicle id="veh_92" type="standard_car" route="south_to_east" depart="1041.85"/>
    <vehicle id="veh_93" type="standard_car" route="west_to_south" depart="350.59"/>
    <vehicle id="veh_94" type="standard_car" route="south_to_east" depart="2322.22"/>
    <vehicle id="veh_95" type="standard_car" route="south_to_east" depart="3511.49"/>
    <vehicle id="veh_96" type="standard_car" route="south_to_north" depart="1103.93"/>
    <vehicle id="veh_97" type="standard_car" route="south_to_west" depart="26.43"/>
    <vehicle id="veh_98" type="standard_car" route="north_to_east" depart="2383.79"/>
    <vehicle id="veh_99" type="standard_car" route="north_to_west" depart="1781.53"/>
    <vehicle id="veh_100" type="standard_car" route="north_to_west" depart="742.63"/>
    <vehicle id="veh_101" type="standard_car" route="north_to_south" depart="620.30"/>
    <vehicle id="veh_102" type="standard_car" route="west_to_north" depart="2221.19"/>
    <vehicle id="veh_103" type="standard_car" route="west_to_east" depart="2396.40"/>
    <vehicle id="veh_104" type="standard_car" route="east_to_west" depart="1726.85"/>
    <vehicle id="veh_105" type="standard_car" route="east_to_south" depart="1444.28"/>
    <vehicle id="veh_106" type="standard_car" route="west_to_south" depart="1003.35"/>
    <vehicle id="veh_107" type="standard_car" route="west_to_north" depart="3537.99"/>
    <vehicle id="veh_108" type="standard_car" route="east_to_south" depart="2323.21"/>
    <vehicle id="veh_109" type="standard_car" route="east_to_north" depart="961.92"/>
    <vehicle id="veh_110" type="standard_car" route="east_to_south" depart="1882.18"/>
    <vehicle id="veh_111" type="standard_car" route="south_to_north" depart="2558.83"/>
    <vehicle id="veh_112" type="standard_car" route="east_to_north" depart="3594.86"/>
    <vehicle id="veh_113" type="standard_car" route="north_to_south" depart="720.39"/>
    <vehicle id="veh_114" type="standard_car" route="west_to_south" depart="782.56"/>
    <vehicle id="veh_115" type="standard_car" route="south_to_north" depart="3518.32"/>
    <vehicle id="veh_116" type="standard_car" route="north_to_east" depart="1319.02"/>
    <vehicle id="veh_117" type="standard_car" route="south_to_east" depart="161.27"/>
    <vehicle id="veh_118" type="standard_car" route="north_to_east" depart="1203.47"/>
    <vehicle id="veh_119" type="standard_car" route="south_to_west" depart="1450.46"/>
    <vehicle id="veh_120" type="standard_car" route="south_to_north" depart="535.90"/>
    <vehicle id="veh_121" type="standard_car" route="west_to_south" depart="89.01"/>
    <vehicle id="veh_122" type="standard_car" route="west_to_east" depart="1542.31"/>
    <vehicle id="veh_123" type="standard_car" route="west_to_east" depart="1304.30"/>
    <vehicle id="veh_124" type="standard_car" route="east_to_south" depart="1492.00"/>
    <vehicle id="veh_125" type="standard_car" route="south_to_east" depart="48.08"/>
    <vehicle id="veh_126" type="standard_car" route="east_to_west" depart="794.49"/>
    <vehicle id="veh_127" type="standard_car" route="north_to_west" depart="45.61"/>
    <vehicle id="veh_128" type="standard_car" route="east_to_west" depart="633.01"/>
    <vehicle id="veh_129" type="standard_car" route="west_to_north" depart="471.34"/>
    <vehicle id="veh_130" type="standard_car" route="west_to_south" depart="2585.58"/>
    <vehicle id="veh_131" type="standard_car" route="east_to_south" depart="1252.88"/>
    <vehicle id="veh_132" type="standard_car" route="north_to_west" depart="3594.72"/>
    <vehicle id="veh_133" type="standard_car" route="south_to_north" depart="3594.72"/>
    <vehicle id="veh_134" type="standard_car" route="north_to_west" depart="257.63"/>
    <vehicle id="veh_135" type="standard_car" route="east_to_north" depart="3458.02"/>
    <vehicle id="veh_136" type="standard_car" route="west_to_south" depart="3168.78"/>
    <vehicle id="veh_137" type="standard_car" route="south_to_west" depart="1692.08"/>
    <vehicle id="veh_138" type="standard_car" route="east_to_west" depart="789.02"/>
    <vehicle id="veh_139" type="standard_car" route="north_to_east" depart="2294.91"/>
    <vehicle id="veh_140" type="standard_car" route="west_to_north" depart="1386.90"/>
    <vehicle id="veh_141" type="standard_car" route="east_to_north" depart="525.33"/>
    <vehicle id="veh_142" type="standard_car" route="south_to_west" depart="3228.77"/>
    <vehicle id="veh_143" type="standard_car" route="east_to_north" depart="2487.76"/>
    <vehicle id="veh_144" type="standard_car" route="south_to_west" depart="2994.83"/>
    <vehicle id="veh_145" type="standard_car" route="west_to_east" depart="1364.61"/>
    <vehicle id="veh_146" type="standard_car" route="south_to_north" depart="3490.92"/>
    <vehicle id="veh_147" type="standard_car" route="north_to_west" depart="99.67"/>
    <vehicle id="veh_148" type="standard_car" route="south_to_west" depart="1439.13"/>
    <vehicle id="veh_149" type="standard_car" route="north_to_south" depart="634.75"/>
    <vehicle id="veh_150" type="standard_car" route="south_to_east" depart="3029.85"/>
    <vehicle id="veh_151" type="standard_car" route="north_to_west" depart="716.02"/>
    <vehicle id="veh_152" type="standard_car" route="west_to_south" depart="294.88"/>
    <vehicle id="veh_153" type="standard_car" route="west_to_south" depart="1621.04"/>
    <vehicle id="veh_154" type="standard_car" route="west_to_east" depart="831.43"/>
    <vehicle id="veh_155" type="standard_car" route="south_to_north" depart="1826.82"/>
    <vehicle id="veh_156" type="standard_car" route="north_to_south" depart="667.05"/>
    <vehicle id="veh_157" type="standard_car" route="east_to_south" depart="1759.02"/>
    <vehicle id="veh_158" type="standard_car" route="south_to_north" depart="858.41"/>
    <vehicle id="veh_159" type="standard_car" route="south_to_east" depart="1916.97"/>
    <vehicle id="veh_160" type="standard_car" route="south_to_north" depart="2127.02"/>
    <vehicle id="veh_161" type="standard_car" route="east_to_south" depart="2122.09"/>
    <vehicle id="veh_162" type="standard_car" route="north_to_east" depart="3422.68"/>
    <vehicle id="veh_163" type="standard_car" route="east_to_west" depart="1443.89"/>
    <vehicle id="veh_164" type="standard_car" route="north_to_west" depart="79.68"/>
    <vehicle id="veh_165" type="standard_car" route="west_to_south" depart="3.35"/>
    <vehicle id="veh_166" type="standard_car" route="west_to_north" depart="3543.56"/>
    <vehicle id="veh_167" type="standard_car" route="north_to_south" depart="2177.00"/>
    <vehicle id="veh_168" type="standard_car" route="west_to_north" depart="1429.55"/>
    <vehicle id="veh_169" type="standard_car" route="north_to_south" depart="2661.88"/>
    <vehicle id="veh_170" type="standard_car" route="north_to_west" depart="2310.97"/>
    <vehicle id="veh_171" type="standard_car" route="east_to_north" depart="3372.22"/>
    <vehicle id="veh_172" type="standard_car" route="west_to_south" depart="3109.54"/>
    <vehicle id="veh_173" type="standard_car" route="north_to_west" depart="1871.45"/>
    <vehicle id="veh_174" type="standard_car" route="east_to_south" depart="1617.81"/>
    <vehicle id="veh_175" type="standard_car" route="west_to_north" depart="1442.92"/>
    <vehicle id="veh_176" type="standard_car" route="west_to_south" depart="350.21"/>
    <vehicle id="veh_177" type="standard_car" route="south_to_west" depart="881.90"/>
    <vehicle id="veh_178" type="standard_car" route="west_to_east" depart="2344.49"/>
    <vehicle id="veh_179" type="standard_car" route="east_to_south" depart="1700.78"/>
    <vehicle id="veh_180" type="standard_car" route="north_to_west" depart="977.23"/>
    <vehicle id="veh_181" type="standard_car" route="west_to_east" depart="337.34"/>
    <vehicle id="veh_182" type="standard_car" route="south_to_east" depart="1797.99"/>
    <vehicle id="veh_183" type="standard_car" route="south_to_north" depart="712.09"/>
    <vehicle id="veh_184" type="standard_car" route="east_to_north" depart="2666.70"/>
    <vehicle id="veh_185" type="standard_car" route="north_to_west" depart="3135.79"/>
    <vehicle id="veh_186" type="standard_car" route="east_to_west" depart="801.75"/>
    <vehicle id="veh_187" type="standard_car" route="west_to_north" depart="21.88"/>
    <vehicle id="veh_188" type="standard_car" route="south_to_west" depart="3575.76"/>
    <vehicle id="veh_189" type="standard_car" route="east_to_west" depart="1830.25"/>
    <vehicle id="veh_190" type="standard_car" route="north_to_east" depart="2213.40"/>
    <vehicle id="veh_191" type="standard_car" route="north_to_east" depart="52.75"/>
    <vehicle id="veh_192" type="standard_car" route="west_to_east" depart="1595.78"/>
    <vehicle id="veh_193" type="standard_car" route="west_to_east" depart="3106.63"/>
    <vehicle id="veh_194" type="standard_car" route="east_to_north" depart="2577.83"/>
    <vehicle id="veh_195" type="standard_car" route="south_to_west" depart="3453.14"/>
    <vehicle id="veh_196" type="standard_car" route="east_to_west" depart="3354.81"/>
    <vehicle id="veh_197" type="standard_car" route="west_to_south" depart="2594.96"/>
    <vehicle id="veh_198" type="standard_car" route="east_to_west" depart="3104.20"/>
    <vehicle id="veh_199" type="standard_car" route="south_to_west" depart="3091.98"/>
    <vehicle id="veh_200" type="standard_car" route="south_to_north" depart="2985.14"/>
    <vehicle id="veh_201" type="standard_car" route="west_to_south" depart="3516.02"/>
    <vehicle id="veh_202" type="standard_car" route="south_to_west" depart="2457.77"/>
    <vehicle id="veh_203" type="standard_car" route="east_to_south" depart="2281.83"/>
    <vehicle id="veh_204" type="standard_car" route="east_to_north" depart="2934.09"/>
    <vehicle id="veh_205" type="standard_car" route="east_to_west" depart="2825.46"/>
    <vehicle id="veh_206" type="standard_car" route="west_to_east" depart="1397.14"/>
    <vehicle id="veh_207" type="standard_car" route="north_to_south" depart="175.74"/>
    <vehicle id="veh_208" type="standard_car" route="east_to_north" depart="2606.19"/>
    <vehicle id="veh_209" type="standard_car" route="east_to_south" depart="818.75"/>
    <vehicle id="veh_210" type="standard_car" route="west_to_south" depart="225.66"/>
    <vehicle id="veh_211" type="standard_car" route="west_to_north" depart="3065.06"/>
    <vehicle id="veh_212" type="standard_car" route="east_to_west" depart="166.67"/>
    <vehicle id="veh_213" type="standard_car" route="north_to_west" depart="2114.82"/>
    <vehicle id="veh_214" type="standard_car" route="north_to_west" depart="1380.20"/>
    <vehicle id="veh_215" type="standard_car" route="south_to_north" depart="2446.03"/>
    <vehicle id="veh_216" type="standard_car" route="west_to_east" depart="702.21"/>
    <vehicle id="veh_217" type="standard_car" route="east_to_west" depart="3000.42"/>
    <vehicle id="veh_218" type="standard_car" route="north_to_south" depart="2344.19"/>
    <vehicle id="veh_219" type="standard_car" route="west_to_south" depart="142.41"/>
    <vehicle id="veh_220" type="standard_car" route="west_to_south" depart="392.70"/>
    <vehicle id="veh_221" type="standard_car" route="south_to_north" depart="2822.44"/>
    <vehicle id="veh_222" type="standard_car" route="west_to_south" depart="3468.27"/>
    <vehicle id="veh_223" type="standard_car" route="north_to_east" depart="578.91"/>
    <vehicle id="veh_224" type="standard_car" route="west_to_east" depart="2545.09"/>
    <vehicle id="veh_225" type="standard_car" route="east_to_north" depart="2586.70"/>
    <vehicle id="veh_226" type="standard_car" route="east_to_west" depart="2453.38"/>
    <vehicle id="veh_227" type="standard_car" route="west_to_south" depart="543.87"/>
    <vehicle id="veh_228" type="standard_car" route="east_to_north" depart="300.62"/>
    <vehicle id="veh_229" type="standard_car" route="north_to_east" depart="1623.78"/>
    <vehicle id="veh_230" type="standard_car" route="east_to_west" depart="2954.93"/>
    <vehicle id="veh_231" type="standard_car" route="south_to_north" depart="3528.95"/>
    <vehicle id="veh_232" type="standard_car" route="east_to_south" depart="2600.05"/>
    <vehicle id="veh_233" type="standard_car" route="west_to_south" depart="2419.07"/>
    <vehicle id="veh_234" type="standard_car" route="south_to_north" depart="2383.50"/>
    <vehicle id="veh_235" type="standard_car" route="north_to_west" depart="2145.69"/>
    <vehicle id="veh_236" type="standard_car" route="north_to_east" depart="1846.25"/>
    <vehicle id="veh_237" type="standard_car" route="west_to_north" depart="3051.80"/>
    <vehicle id="veh_238" type="standard_car" route="west_to_east" depart="947.61"/>
    <vehicle id="veh_239" type="standard_car" route="east_to_west" depart="12.97"/>
    <vehicle id="veh_240" type="standard_car" route="north_to_west" depart="1780.17"/>
    <vehicle id="veh_241" type="standard_car" route="west_to_north" depart="647.56"/>
    <vehicle id="veh_242" type="standard_car" route="west_to_south" depart="2519.44"/>
    <vehicle id="veh_243" type="standard_car" route="south_to_east" depart="1624.68"/>
    <vehicle id="veh_244" type="standard_car" route="north_to_west" depart="2669.21"/>
    <vehicle id="veh_245" type="standard_car" route="south_to_west" depart="834.88"/>
    <vehicle id="veh_246" type="standard_car" route="north_to_west" depart="2161.61"/>
    <vehicle id="veh_247" type="standard_car" route="south_to_west" depart="917.63"/>
    <vehicle id="veh_248" type="standard_car" route="west_to_east" depart="2510.06"/>
    <vehicle id="veh_249" type="standard_car" route="east_to_north" depart="1311.66"/>
    <vehicle id="veh_250" type="standard_car" route="north_to_south" depart="862.70"/>
    <vehicle id="veh_251" type="standard_car" route="north_to_west" depart="1507.27"/>
    <vehicle id="veh_252" type="standard_car" route="south_to_east" depart="1862.45"/>
    <vehicle id="veh_253" type="standard_car" route="north_to_west" depart="2868.50"/>
    <vehicle id="veh_254" type="standard_car" route="east_to_north" depart="1938.46"/>
    <vehicle id="veh_255" type="standard_car" route="south_to_east" depart="2724.70"/>
    <vehicle id="veh_256" type="standard_car" route="north_to_west" depart="168.97"/>
    <vehicle id="veh_257" type="standard_car" route="south_to_east" depart="2225.99"/>
    <vehicle id="veh_258" type="standard_car" route="east_to_west" depart="1209.75"/>
    <vehicle id="veh_259" type="standard_car" route="east_to_south" depart="401.98"/>
    <vehicle id="veh_260" type="standard_car" route="north_to_east" depart="37.55"/>
    <vehicle id="veh_261" type="standard_car" route="west_to_north" depart="3260.46"/>
    <vehicle id="veh_262" type="standard_car" route="east_to_west" depart="3071.75"/>
    <vehicle id="veh_263" type="standard_car" route="west_to_north" depart="25.87"/>
    <vehicle id="veh_264" type="standard_car" route="east_to_west" depart="40.86"/>
    <vehicle id="veh_265" type="standard_car" route="north_to_east" depart="1497.81"/>
    <vehicle id="veh_266" type="standard_car" route="north_to_west" depart="224.51"/>
    <vehicle id="veh_267" type="standard_car" route="north_to_south" depart="3093.58"/>
    <vehicle id="veh_268" type="standard_car" route="south_to_north" depart="34.82"/>
    <vehicle id="veh_269" type="standard_car" route="west_to_east" depart="281.72"/>
    <vehicle id="veh_270" type="standard_car" route="east_to_south" depart="2091.50"/>
    <vehicle id="veh_271" type="standard_car" route="north_to_east" depart="2498.76"/>
    <vehicle id="veh_272" type="standard_car" route="south_to_east" depart="1404.19"/>
    <vehicle id="veh_273" type="standard_car" route="west_to_north" depart="250.09"/>
    <vehicle id="veh_274" type="standard_car" route="east_to_south" depart="884.50"/>
    <vehicle id="veh_275" type="standard_car" route="west_to_south" depart="1963.80"/>
    <vehicle id="veh_276" type="standard_car" route="south_to_north" depart="1656.82"/>
    <vehicle id="veh_277" type="standard_car" route="north_to_east" depart="1902.61"/>
    <vehicle id="veh_278" type="standard_car" route="north_to_west" depart="3391.59"/>
    <vehicle id="veh_279" type="standard_car" route="west_to_south" depart="2152.45"/>
    <vehicle id="veh_280" type="standard_car" route="west_to_north" depart="822.19"/>
    <vehicle id="veh_281" type="standard_car" route="east_to_west" depart="2868.15"/>
    <vehicle id="veh_282" type="standard_car" route="north_to_west" depart="1217.52"/>
    <vehicle id="veh_283" type="standard_car" route="north_to_south" depart="2599.66"/>
    <vehicle id="veh_284" type="standard_car" route="south_to_north" depart="1406.48"/>
    <vehicle id="veh_285" type="standard_car" route="south_to_east" depart="1460.93"/>
    <vehicle id="veh_286" type="standard_car" route="south_to_west" depart="1877.64"/>
    <vehicle id="veh_287" type="standard_car" route="east_to_south" depart="460.98"/>
    <vehicle id="veh_288" type="standard_car" route="east_to_north" depart="2334.31"/>
    <vehicle id="veh_289" type="standard_car" route="east_to_west" depart="566.47"/>
    <vehicle id="veh_290" type="standard_car" route="east_to_north" depart="2181.46"/>
    <vehicle id="veh_291" type="standard_car" route="east_to_south" depart="23.20"/>
    <vehicle id="veh_292" type="standard_car" route="north_to_south" depart="248.78"/>
    <vehicle id="veh_293" type="standard_car" route="west_to_east" depart="1552.20"/>
    <vehicle id="veh_294" type="standard_car" route="east_to_west" depart="1249.62"/>
    <vehicle id="veh_295" type="standard_car" route="south_to_north" depart="2341.24"/>
    <vehicle id="veh_296" type="standard_car" route="north_to_east" depart="415.78"/>
    <vehicle id="veh_297" type="standard_car" route="west_to_south" depart="2733.28"/>
    <vehicle id="veh_298" type="standard_car" route="north_to_east" depart="3458.39"/>
    <vehicle id="veh_299" type="standard_car" route="south_to_east" depart="1490.94"/>
    <vehicle id="veh_300" type="standard_car" route="west_to_north" depart="2417.64"/>
    <vehicle id="veh_301" type="standard_car" route="north_to_west" depart="2745.63"/>
    <vehicle id="veh_302" type="standard_car" route="east_to_north" depart="2088.39"/>
    <vehicle id="veh_303" type="standard_car" route="south_to_north" depart="1015.17"/>
    <vehicle id="veh_304" type="standard_car" route="west_to_south" depart="1912.48"/>
    <vehicle id="veh_305" type="standard_car" route="west_to_south" depart="682.53"/>
    <vehicle id="veh_306" type="standard_car" route="south_to_north" depart="3229.96"/>
    <vehicle id="veh_307" type="standard_car" route="south_to_north" depart="118.68"/>
    <vehicle id="veh_308" type="standard_car" route="north_to_east" depart="1363.47"/>
    <vehicle id="veh_309" type="standard_car" route="east_to_south" depart="2998.03"/>
    <vehicle id="veh_310" type="standard_car" route="north_to_east" depart="3595.45"/>
    <vehicle id="veh_311" type="standard_car" route="east_to_south" depart="2577.03"/>
    <vehicle id="veh_312" type="standard_car" route="east_to_north" depart="393.31"/>
    <vehicle id="veh_313" type="standard_car" route="east_to_west" depart="2968.65"/>
    <vehicle id="veh_314" type="standard_car" route="south_to_east" depart="423.45"/>
    <vehicle id="veh_315" type="standard_car" route="west_to_north" depart="1006.19"/>
    <vehicle id="veh_316" type="standard_car" route="west_to_north" depart="2934.79"/>
    <vehicle id="veh_317" type="standard_car" route="west_to_south" depart="2820.04"/>
    <vehicle id="veh_318" type="standard_car" route="north_to_south" depart="769.41"/>
    <vehicle id="veh_319" type="standard_car" route="west_to_east" depart="2349.03"/>
    <vehicle id="veh_320" type="standard_car" route="south_to_west" depart="2935.22"/>
    <vehicle id="veh_321" type="standard_car" route="south_to_west" depart="2409.87"/>
    <vehicle id="veh_322" type="standard_car" route="north_to_south" depart="260.78"/>
    <vehicle id="veh_323" type="standard_car" route="north_to_east" depart="1130.17"/>
    <vehicle id="veh_324" type="standard_car" route="north_to_east" depart="2747.89"/>
    <vehicle id="veh_325" type="standard_car" route="east_to_south" depart="31.61"/>
    <vehicle id="veh_326" type="standard_car" route="north_to_west" depart="2091.23"/>
    <vehicle id="veh_327" type="standard_car" route="south_to_east" depart="2807.52"/>
    <vehicle id="veh_328" type="standard_car" route="west_to_east" depart="3109.67"/>
    <vehicle id="veh_329" type="standard_car" route="south_to_west" depart="1919.18"/>
    <vehicle id="veh_330" type="standard_car" route="east_to_south" depart="105.87"/>
    <vehicle id="veh_331" type="standard_car" route="south_to_west" depart="185.21"/>
    <vehicle id="veh_332" type="standard_car" route="south_to_east" depart="1498.49"/>
    <vehicle id="veh_333" type="standard_car" route="west_to_north" depart="326.42"/>
    <vehicle id="veh_334" type="standard_car" route="south_to_north" depart="2436.98"/>
    <vehicle id="veh_335" type="standard_car" route="east_to_west" depart="3227.52"/>
    <vehicle id="veh_336" type="standard_car" route="east_to_north" depart="2362.20"/>
    <vehicle id="veh_337" type="standard_car" route="east_to_south" depart="2.62"/>