<?xml version="1.0" encoding="UTF-8"?>
<routes>
    <vType id="car" accel="2.6" decel="4.5" sigma="0.5" length="5" minGap="2.5" maxSpeed="13.89" guiShape="passenger"/>

    <route id="north_south" edges="N2TL TL2S"/>
    <route id="north_east" edges="N2TL TL2E"/>
    <route id="north_west" edges="N2TL TL2W"/>
    <route id="south_north" edges="S2TL TL2N"/>
    <route id="south_east" edges="S2TL TL2E"/>
    <route id="south_west" edges="S2TL TL2W"/>
    <route id="east_north" edges="E2TL TL2N"/>
    <route id="east_south" edges="E2TL TL2S"/>
    <route id="east_west" edges="E2TL TL2W"/>
    <route id="west_north" edges="W2TL TL2N"/>
    <route id="west_south" edges="W2TL TL2S"/>
    <route id="west_east" edges="W2TL TL2E"/>

    <vehicle id="veh_0" type="car" route="south_east" depart="0.47"/>
    <vehicle id="veh_1" type="car" route="east_north" depart="5.05"/>
    <vehicle id="veh_2" type="car" route="west_east" depart="11.47"/>
    <vehicle id="veh_3" type="car" route="south_east" depart="13.72"/>
    <vehicle id="veh_4" type="car" route="north_east" depart="46.46"/>
    <vehicle id="veh_5" type="car" route="south_east" depart="93.52"/>
    <vehicle id="veh_6" type="car" route="west_south" depart="99.88"/>
    <vehicle id="veh_7" type="car" route="east_west" depart="104.13"/>
    <vehicle id="veh_8" type="car" route="north_east" depart="105.38"/>
    <vehicle id="veh_9" type="car" route="north_west" depart="122.68"/>
    <vehicle id="veh_10" type="car" route="north_west" depart="129.96"/>
    <vehicle id="veh_11" type="car" route="north_west" depart="136.80"/>
    <vehicle id="veh_12" type="car" route="south_east" depart="167.51"/>
    <vehicle id="veh_13" type="car" route="south_east" depart="175.38"/>
    <vehicle id="veh_14" type="car" route="south_east" depart="178.93"/>
    <vehicle id="veh_15" type="car" route="west_south" depart="184.66"/>
    <vehicle id="veh_16" type="car" route="south_north" depart="206.44"/>
    <vehicle id="veh_17" type="car" route="east_west" depart="212.30"/>
    <vehicle id="veh_18" type="car" route="east_west" depart="216.00"/>
    <vehicle id="veh_19" type="car" route="east_west" depart="217.88"/>
    <vehicle id="veh_20" type="car" route="south_west" depart="232.28"/>
    <vehicle id="veh_21" type="car" route="east_west" depart="254.56"/>
    <vehicle id="veh_22" type="car" route="west_south" depart="261.77"/>
    <vehicle id="veh_23" type="car" route="west_north" depart="310.92"/>
    <vehicle id="veh_24" type="car" route="west_north" depart="313.89"/>
    <vehicle id="veh_25" type="car" route="north_west" depart="316.09"/>
    <vehicle id="veh_26" type="car" route="east_south" depart="320.00"/>
    <vehicle id="veh_27" type="car" route="north_south" depart="323.95"/>
    <vehicle id="veh_28" type="car" route="east_west" depart="329.14"/>
    <vehicle id="veh_29" type="car" route="north_east" depart="338.31"/>
    <vehicle id="veh_30" type="car" route="east_north" depart="340.19"/>
    <vehicle id="veh_31" type="car" route="west_east" depart="341.04"/>
    <vehicle id="veh_32" type="car" route="east_south" depart="343.96"/>
    <vehicle id="veh_33" type="car" route="east_north" depart="348.13"/>
    <vehicle id="veh_34" type="car" route="north_east" depart="349.03"/>
    <vehicle id="veh_35" type="car" route="south_west" depart="376.15"/>
    <vehicle id="veh_36" type="car" route="east_south" depart="404.40"/>
    <vehicle id="veh_37" type="car" route="west_east" depart="427.90"/>
    <vehicle id="veh_38" type="car" route="east_west" depart="431.02"/>
    <vehicle id="veh_39" type="car" route="south_west" depart="447.59"/>
    <vehicle id="veh_40" type="car" route="north_west" depart="471.16"/>
    <vehicle id="veh_41" type="car" route="east_west" depart="472.29"/>
    <vehicle id="veh_42" type="car" route="south_north" depart="499.56"/>
    <vehicle id="veh_43" type="car" route="west_south" depart="526.61"/>
    <vehicle id="veh_44" type="car" route="west_south" depart="562.10"/>
    <vehicle id="veh_45" type="car" route="east_south" depart="562.21"/>
    <vehicle id="veh_46" type="car" route="north_east" depart="567.93"/>
    <vehicle id="veh_47" type="car" route="south_east" depart="568.72"/>
    <vehicle id="veh_48" type="car" route="south_east" depart="591.29"/>
    <vehicle id="veh_49" type="car" route="west_south" depart="610.84"/>
    <vehicle id="veh_50" type="car" route="south_west" depart="613.03"/>
    <vehicle id="veh_51" type="car" route="north_south" depart="620.57"/>
    <vehicle id="veh_52" type="car" route="west_east" depart="625.24"/>
    <vehicle id="veh_53" type="car" route="east_north" depart="626.17"/>
    <vehicle id="veh_54" type="car" route="east_north" depart="641.70"/>
    <vehicle id="veh_55" type="car" route="south_north" depart="661.84"/>
    <vehicle id="veh_56" type="car" route="south_west" depart="670.53"/>
    <vehicle id="veh_57" type="car" route="north_east" depart="670.55"/>
    <vehicle id="veh_58" type="car" route="east_south" depart="672.41"/>
    <vehicle id="veh_59" type="car" route="north_south" depart="676.87"/>
    <vehicle id="veh_60" type="car" route="west_south" depart="704.43"/>
    <vehicle id="veh_61" type="car" route="west_north" depart="705.15"/>
    <vehicle id="veh_62" type="car" route="east_south" depart="711.93"/>
    <vehicle id="veh_63" type="car" route="north_east" depart="723.26"/>
    <vehicle id="veh_64" type="car" route="south_west" depart="739.20"/>
    <vehicle id="veh_65" type="car" route="south_north" depart="751.08"/>
    <vehicle id="veh_66" type="car" route="north_east" depart="776.49"/>
    <vehicle id="veh_67" type="car" route="east_south" depart="777.11"/>
    <vehicle id="veh_68" type="car" route="south_east" depart="783.53"/>
    <vehicle id="veh_69" type="car" route="east_west" depart="790.55"/>
    <vehicle id="veh_70" type="car" route="south_east" depart="815.05"/>
    <vehicle id="veh_71" type="car" route="west_south" depart="816.31"/>
    <vehicle id="veh_72" type="car" route="south_north" depart="836.03"/>
    <vehicle id="veh_73" type="car" route="west_south" depart="844.54"/>
    <vehicle id="veh_74" type="car" route="south_east" depart="846.80"/>
    <vehicle id="veh_75" type="car" route="south_east" depart="852.07"/>
    <vehicle id="veh_76" type="car" route="west_east" depart="853.93"/>
    <vehicle id="veh_77" type="car" route="north_south" depart="878.32"/>
    <vehicle id="veh_78" type="car" route="south_west" depart="886.21"/>
    <vehicle id="veh_79" type="car" route="east_north" depart="888.94"/>
    <vehicle id="veh_80" type="car" route="south_east" depart="903.59"/>
    <vehicle id="veh_81" type="car" route="north_east" depart="910.95"/>
    <vehicle id="veh_82" type="car" route="east_west" depart="911.28"/>
    <vehicle id="veh_83" type="car" route="east_south" depart="917.27"/>
    <vehicle id="veh_84" type="car" route="north_west" depart="933.84"/>
    <vehicle id="veh_85" type="car" route="north_east" depart="940.30"/>
    <vehicle id="veh_86" type="car" route="south_west" depart="945.39"/>
    <vehicle id="veh_87" type="car" route="west_east" depart="955.72"/>
    <vehicle id="veh_88" type="car" route="east_north" depart="980.37"/>
    <vehicle id="veh_89" type="car" route="south_west" depart="993.06"/>
    <vehicle id="veh_90" type="car" route="west_north" depart="1014.76"/>
    <vehicle id="veh_91" type="car" route="east_north" depart="1044.49"/>
    <vehicle id="veh_92" type="car" route="west_north" depart="1059.20"/>
    <vehicle id="veh_93" type="car" route="north_west" depart="1061.72"/>
    <vehicle id="veh_94" type="car" route="south_north" depart="1074.77"/>
    <vehicle id="veh_95" type="car" route="north_south" depart="1178.10"/>
    <vehicle id="veh_96" type="car" route="east_west" depart="1180.84"/>
    <vehicle id="veh_97" type="car" route="west_east" depart="1180.87"/>
    <vehicle id="veh_98" type="car" route="east_south" depart="1187.49"/>
    <vehicle id="veh_99" type="car" route="east_south" depart="1191.73"/>
    <vehicle id="veh_100" type="car" route="west_south" depart="1195.85"/>
    <vehicle id="veh_101" type="car" route="west_north" depart="1217.76"/>
    <vehicle id="veh_102" type="car" route="south_east" depart="1233.00"/>
    <vehicle id="veh_103" type="car" route="south_west" depart="1241.48"/>
    <vehicle id="veh_104" type="car" route="west_north" depart="1255.57"/>
    <vehicle id="veh_105" type="car" route="east_west" depart="1263.87"/>
    <vehicle id="veh_106" type="car" route="south_north" depart="1265.22"/>
    <vehicle id="veh_107" type="car" route="north_south" depart="1270.71"/>
    <vehicle id="veh_108" type="car" route="north_south" depart="1272.74"/>
    <vehicle id="veh_109" type="car" route="east_west" depart="1277.28"/>
    <vehicle id="veh_110" type="car" route="east_south" depart="1279.71"/>
    <vehicle id="veh_111" type="car" route="north_south" depart="1282.11"/>
    <vehicle id="veh_112" type="car" route="west_north" depart="1298.59"/>
    <vehicle id="veh_113" type="car" route="west_east" depart="1299.68"/>
    <vehicle id="veh_114" type="car" route="east_west" depart="1335.81"/>
    <vehicle id="veh_115" type="car" route="west_east" depart="1347.72"/>
    <vehicle id="veh_116" type="car" route="north_east" depart="1437.20"/>
    <vehicle id="veh_117" type="car" route="north_west" depart="1439.38"/>
    <vehicle id="veh_118" type="car" route="east_west" depart="1448.41"/>
    <vehicle id="veh_119" type="car" route="south_west" depart="1485.59"/>
    <vehicle id="veh_120" type="car" route="east_west" depart="1488.76"/>
    <vehicle id="veh_121" type="car" route="west_south" depart="1492.55"/>
    <vehicle id="veh_122" type="car" route="east_north" depart="1505.23"/>
    <vehicle id="veh_123" type="car" route="east_west" depart="1508.99"/>
    <vehicle id="veh_124" type="car" route="west_east" depart="1519.61"/>
    <vehicle id="veh_125" type="car" route="east_south" depart="1534.46"/>
    <vehicle id="veh_126" type="car" route="west_north" depart="1544.57"/>
    <vehicle id="veh_127" type="car" route="south_west" depart="1549.04"/>
    <vehicle id="veh_128" type="car" route="west_east" depart="1552.90"/>
    <vehicle id="veh_129" type="car" route="north_east" depart="1553.95"/>
    <vehicle id="veh_130" type="car" route="west_east" depart="1561.68"/>
    <vehicle id="veh_131" type="car" route="east_north" depart="1565.95"/>
    <vehicle id="veh_132" type="car" route="west_east" depart="1570.11"/>
    <vehicle id="veh_133" type="car" route="north_west" depart="1571.61"/>
    <vehicle id="veh_134" type="car" route="east_west" depart="1572.10"/>
    <vehicle id="veh_135" type="car" route="east_north" depart="1573.86"/>
    <vehicle id="veh_136" type="car" route="east_south" depart="1574.45"/>
    <vehicle id="veh_137" type="car" route="west_east" depart="1582.30"/>
    <vehicle id="veh_138" type="car" route="south_east" depart="1583.43"/>
    <vehicle id="veh_139" type="car" route="east_west" depart="1585.38"/>
    <vehicle id="veh_140" type="car" route="west_north" depart="1591.10"/>
    <vehicle id="veh_141" type="car" route="east_west" depart="1600.07"/>
    <vehicle id="veh_142" type="car" route="south_east" depart="1605.71"/>
    <vehicle id="veh_143" type="car" route="west_south" depart="1605.92"/>
    <vehicle id="veh_144" type="car" route="north_south" depart="1615.32"/>
    <vehicle id="veh_145" type="car" route="east_south" depart="1621.90"/>
    <vehicle id="veh_146" type="car" route="west_east" depart="1632.28"/>
    <vehicle id="veh_147" type="car" route="south_north" depart="1663.00"/>
    <vehicle id="veh_148" type="car" route="south_east" depart="1673.32"/>
    <vehicle id="veh_149" type="car" route="north_east" depart="1692.26"/>
    <vehicle id="veh_150" type="car" route="east_south" depart="1712.38"/>
    <vehicle id="veh_151" type="car" route="west_south" depart="1718.28"/>
    <vehicle id="veh_152" type="car" route="west_east" depart="1725.27"/>
    <vehicle id="veh_153" type="car" route="west_east" depart="1767.74"/>
    <vehicle id="veh_154" type="car" route="south_west" depart="1773.33"/>
    <vehicle id="veh_155" type="car" route="east_west" depart="1812.29"/>
    <vehicle id="veh_156" type="car" route="west_south" depart="1824.19"/>
    <vehicle id="veh_157" type="car" route="west_north" depart="1846.53"/>
    <vehicle id="veh_158" type="car" route="east_south" depart="1850.69"/>
    <vehicle id="veh_159" type="car" route="west_south" depart="1868.11"/>
    <vehicle id="veh_160" type="car" route="south_west" depart="1907.62"/>
    <vehicle id="veh_161" type="car" route="north_west" depart="1909.80"/>
    <vehicle id="veh_162" type="car" route="north_west" depart="1914.93"/>
    <vehicle id="veh_163" type="car" route="west_north" depart="1918.80"/>
    <vehicle id="veh_164" type="car" route="south_east" depart="1953.86"/>
    <vehicle id="veh_165" type="car" route="west_south" depart="1954.44"/>
    <vehicle id="veh_166" type="car" route="west_north" depart="1992.92"/>
    <vehicle id="veh_167" type="car" route="east_west" depart="2009.32"/>
    <vehicle id="veh_168" type="car" route="north_west" depart="2051.95"/>
    <vehicle id="veh_169" type="car" route="east_west" depart="2059.19"/>
    <vehicle id="veh_170" type="car" route="east_north" depart="2062.97"/>
    <vehicle id="veh_171" type="car" route="east_south" depart="2087.43"/>
    <vehicle id="veh_172" type="car" route="west_east" depart="2093.17"/>
    <vehicle id="veh_173" type="car" route="south_west" depart="2126.05"/>
    <vehicle id="veh_174" type="car" route="east_south" depart="2144.59"/>
    <vehicle id="veh_175" type="car" route="south_west" depart="2155.97"/>
    <vehicle id="veh_176" type="car" route="east_west" depart="2157.72"/>
    <vehicle id="veh_177" type="car" route="north_east" depart="2170.43"/>
    <vehicle id="veh_178" type="car" route="south_east" depart="2177.14"/>
    <vehicle id="veh_179" type="car" route="north_east" depart="2217.42"/>
    <vehicle id="veh_180" type="car" route="west_north" depart="2236.70"/>
    <vehicle id="veh_181" type="car" route="south_north" depart="2255.71"/>
    <vehicle id="veh_182" type="car" route="east_west" depart="2273.14"/>
    <vehicle id="veh_183" type="car" route="west_south" depart="2273.19"/>
    <vehicle id="veh_184" type="car" route="north_west" depart="2284.15"/>
    <vehicle id="veh_185" type="car" route="south_west" depart="2302.14"/>
    <vehicle id="veh_186" type="car" route="west_south" depart="2312.31"/>
    <vehicle id="veh_187" type="car" route="east_north" depart="2322.54"/>
    <vehicle id="veh_188" type="car" route="south_east" depart="2329.92"/>
    <vehicle id="veh_189" type="car" route="east_north" depart="2332.69"/>
    <vehicle id="veh_190" type="car" route="south_west" depart="2337.04"/>
    <vehicle id="veh_191" type="car" route="east_south" depart="2354.11"/>
    <vehicle id="veh_192" type="car" route="east_north" depart="2372.12"/>
    <vehicle id="veh_193" type="car" route="west_south" depart="2376.14"/>
    <vehicle id="veh_194" type="car" route="south_west" depart="2377.32"/>
    <vehicle id="veh_195" type="car" route="east_west" depart="2379.05"/>
    <vehicle id="veh_196" type="car" route="south_east" depart="2385.83"/>
    <vehicle id="veh_197" type="car" route="west_south" depart="2389.37"/>
    <vehicle id="veh_198" type="car" route="south_west" depart="2397.21"/>
    <vehicle id="veh_199" type="car" route="south_north" depart="2417.34"/>
    <vehicle id="veh_200" type="car" route="south_north" depart="2417.54"/>
    <vehicle id="veh_201" type="car" route="north_east" depart="2434.68"/>
    <vehicle id="veh_202" type="car" route="south_north" depart="2457.08"/>
    <vehicle id="veh_203" type="car" route="north_south" depart="2487.52"/>
    <vehicle id="veh_204" type="car" route="south_north" depart="2497.12"/>
    <vehicle id="veh_205" type="car" route="south_west" depart="2498.60"/>
    <vehicle id="veh_206" type="car" route="west_east" depart="2506.51"/>
    <vehicle id="veh_207" type="car" route="south_north" depart="2508.16"/>
    <vehicle id="veh_208" type="car" route="east_west" depart="2510.92"/>
    <vehicle id="veh_209" type="car" route="east_west" depart="2512.47"/>
    <vehicle id="veh_210" type="car" route="south_east" depart="2517.24"/>
    <vehicle id="veh_211" type="car" route="north_south" depart="2519.31"/>
    <vehicle id="veh_212" type="car" route="west_east" depart="2528.77"/>
    <vehicle id="veh_213" type="car" route="south_west" depart="2534.02"/>
    <vehicle id="veh_214" type="car" route="east_west" depart="2537.64"/>
    <vehicle id="veh_215" type="car" route="west_east" depart="2567.64"/>
    <vehicle id="veh_216" type="car" route="north_south" depart="2582.45"/>
    <vehicle id="veh_217" type="car" route="east_north" depart="2585.46"/>
    <vehicle id="veh_218" type="car" route="west_east" depart="2609.04"/>
    <vehicle id="veh_219" type="car" route="east_north" depart="2624.89"/>
    <vehicle id="veh_220" type="car" route="west_east" depart="2657.84"/>
    <vehicle id="veh_221" type="car" route="west_east" depart="2700.24"/>
    <vehicle id="veh_222" type="car" route="east_north" depart="2723.70"/>
    <vehicle id="veh_223" type="car" route="west_north" depart="2731.72"/>
    <vehicle id="veh_224" type="car" route="south_north" depart="2733.94"/>
    <vehicle id="veh_225" type="car" route="west_south" depart="2743.15"/>
    <vehicle id="veh_226" type="car" route="west_south" depart="2747.06"/>
    <vehicle id="veh_227" type="car" route="south_west" depart="2757.29"/>
    <vehicle id="veh_228" type="car" route="north_south" depart="2763.90"/>
    <vehicle id="veh_229" type="car" route="north_west" depart="2775.91"/>
    <vehicle id="veh_230" type="car" route="west_north" depart="2785.60"/>
    <vehicle id="veh_231" type="car" route="south_east" depart="2793.47"/>
    <vehicle id="veh_232" type="car" route="north_west" depart="2815.05"/>
    <vehicle id="veh_233" type="car" route="east_west" depart="2833.65"/>
    <vehicle id="veh_234" type="car" route="east_north" depart="2841.97"/>
    <vehicle id="veh_235" type="car" route="south_east" depart="2846.63"/>
    <vehicle id="veh_236" type="car" route="west_south" depart="2850.39"/>
    <vehicle id="veh_237" type="car" route="north_east" depart="2879.28"/>
    <vehicle id="veh_238" type="car" route="south_east" depart="2886.36"/>
    <vehicle id="veh_239" type="car" route="west_south" depart="2886.62"/>
    <vehicle id="veh_240" type="car" route="west_north" depart="2889.55"/>
    <vehicle id="veh_241" type="car" route="west_south" depart="2916.10"/>
    <vehicle id="veh_242" type="car" route="south_west" depart="2927.09"/>
    <vehicle id="veh_243" type="car" route="west_east" depart="2929.29"/>
    <vehicle id="veh_244" type="car" route="north_south" depart="2933.07"/>
    <vehicle id="veh_245" type="car" route="west_south" depart="2935.21"/>
    <vehicle id="veh_246" type="car" route="north_south" depart="2952.97"/>
    <vehicle id="veh_247" type="car" route="north_west" depart="2956.23"/>
    <vehicle id="veh_248" type="car" route="south_north" depart="2963.57"/>
    <vehicle id="veh_249" type="car" route="west_east" depart="2992.89"/>
    <vehicle id="veh_250" type="car" route="west_east" depart="2997.42"/>
    <vehicle id="veh_251" type="car" route="south_east" depart="3016.12"/>
    <vehicle id="veh_252" type="car" route="west_north" depart="3017.98"/>
    <vehicle id="veh_253" type="car" route="north_south" depart="3033.61"/>
    <vehicle id="veh_254" type="car" route="west_north" depart="3036.04"/>
    <vehicle id="veh_255" type="car" route="north_east" depart="3041.20"/>
    <vehicle id="veh_256" type="car" route="east_north" depart="3106.99"/>
    <vehicle id="veh_257" type="car" route="west_south" depart="3112.29"/>
    <vehicle id="veh_258" type="car" route="east_west" depart="3131.57"/>
    <vehicle id="veh_259" type="car" route="north_east" depart="3140.53"/>
    <vehicle id="veh_260" type="car" route="east_west" depart="3144.46"/>
    <vehicle id="veh_261" type="car" route="south_north" depart="3144.92"/>
    <vehicle id="veh_262" type="car" route="west_east" depart="3155.38"/>
    <vehicle id="veh_263" type="car" route="south_east" depart="3164.95"/>
    <vehicle id="veh_264" type="car" route="west_east" depart="3194.98"/>
    <vehicle id="veh_265" type="car" route="south_north" depart="3197.98"/>
    <vehicle id="veh_266" type="car" route="north_south" depart="3201.18"/>
    <vehicle id="veh_267" type="car" route="south_west" depart="3219.14"/>
    <vehicle id="veh_268" type="car" route="west_north" depart="3227.64"/>
    <vehicle id="veh_269" type="car" route="south_north" depart="3231.20"/>
    <vehicle id="veh_270" type="car" route="south_north" depart="3266.63"/>
    <vehicle id="veh_271" type="car" route="south_north" depart="3276.74"/>
    <vehicle id="veh_272" type="car" route="west_east" depart="3296.88"/>
    <vehicle id="veh_273" type="car" route="south_east" depart="3304.31"/>
    <vehicle id="veh_274" type="car" route="east_west" depart="3307.53"/>
    <vehicle id="veh_275" type="car" route="south_east" depart="3308.24"/>
    <vehicle id="veh_276" type="car" route="west_south" depart="3345.53"/>
    <vehicle id="veh_277" type="car" route="east_south" depart="3358.47"/>
    <vehicle id="veh_278" type="car" route="south_west" depart="3361.72"/>
    <vehicle id="veh_279" type="car" route="west_east" depart="3372.29"/>
    <vehicle id="veh_280" type="car" route="north_west" depart="3383.32"/>
    <vehicle id="veh_281" type="car" route="west_east" depart="3400.93"/>
    <vehicle id="veh_282" type="car" route="west_south" depart="3405.22"/>
    <vehicle id="veh_283" type="car" route="north_west" depart="3429.06"/>
    <vehicle id="veh_284" type="car" route="north_west" depart="3444.37"/>
    <vehicle id="veh_285" type="car" route="west_south" depart="3452.16"/>
    <vehicle id="veh_286" type="car" route="west_south" depart="3454.61"/>
    <vehicle id="veh_287" type="car" route="west_south" depart="3461.21"/>
    <vehicle id="veh_288" type="car" route="east_north" depart="3485.75"/>
    <vehicle id="veh_289" type="car" route="east_south" depart="3502.78"/>
    <vehicle id="veh_290" type="car" route="west_east" depart="3510.48"/>
    <vehicle id="veh_291" type="car" route="west_east" depart="3523.17"/>
    <vehicle id="veh_292" type="car" route="north_south" depart="3530.78"/>
    <vehicle id="veh_293" type="car" route="north_west" depart="3542.06"/>
    <vehicle id="veh_294" type="car" route="south_west" depart="3550.43"/>
    <vehicle id="veh_295" type="car" route="south_west" depart="3558.79"/>
    <vehicle id="veh_296" type="car" route="east_west" depart="3559.97"/>
    <vehicle id="veh_297" type="car" route="north_east" depart="3569.45"/>
    <vehicle id="veh_298" type="car" route="north_east" depart="3572.07"/>
    <vehicle id="veh_299" type="car" route="south_east" depart="3597.44"/>
</routes>
