<?xml version="1.0" encoding="UTF-8"?>
<routes>
    <vType id="car" accel="2.6" decel="4.5" sigma="0.5" length="5" minGap="2.5" maxSpeed="13.89" guiShape="passenger"/>

    <route id="north_south" edges="N2TL TL2S"/>
    <route id="north_east" edges="N2TL TL2E"/>
    <route id="north_west" edges="N2TL TL2W"/>
    <route id="south_north" edges="S2TL TL2N"/>
    <route id="south_east" edges="S2TL TL2E"/>
    <route id="south_west" edges="S2TL TL2W"/>
    <route id="east_north" edges="E2TL TL2N"/>
    <route id="east_south" edges="E2TL TL2S"/>
    <route id="east_west" edges="E2TL TL2W"/>
    <route id="west_north" edges="W2TL TL2N"/>
    <route id="west_south" edges="W2TL TL2S"/>
    <route id="west_east" edges="W2TL TL2E"/>

    <vehicle id="veh_0" type="car" route="east_north" depart="3.92"/>
    <vehicle id="veh_1" type="car" route="east_west" depart="4.64"/>
    <vehicle id="veh_2" type="car" route="west_east" depart="8.84"/>
    <vehicle id="veh_3" type="car" route="north_south" depart="19.07"/>
    <vehicle id="veh_4" type="car" route="south_west" depart="24.44"/>
    <vehicle id="veh_5" type="car" route="east_west" depart="29.37"/>
    <vehicle id="veh_6" type="car" route="north_east" depart="34.04"/>
    <vehicle id="veh_7" type="car" route="west_south" depart="45.73"/>
    <vehicle id="veh_8" type="car" route="north_east" depart="47.78"/>
    <vehicle id="veh_9" type="car" route="west_east" depart="57.23"/>
    <vehicle id="veh_10" type="car" route="east_west" depart="61.49"/>
    <vehicle id="veh_11" type="car" route="south_west" depart="62.47"/>
    <vehicle id="veh_12" type="car" route="west_south" depart="62.54"/>
    <vehicle id="veh_13" type="car" route="east_north" depart="65.51"/>
    <vehicle id="veh_14" type="car" route="north_east" depart="65.61"/>
    <vehicle id="veh_15" type="car" route="south_east" depart="76.53"/>
    <vehicle id="veh_16" type="car" route="east_north" depart="80.59"/>
    <vehicle id="veh_17" type="car" route="west_north" depart="81.43"/>
    <vehicle id="veh_18" type="car" route="north_west" depart="88.67"/>
    <vehicle id="veh_19" type="car" route="east_north" depart="92.75"/>
    <vehicle id="veh_20" type="car" route="north_east" depart="96.87"/>
    <vehicle id="veh_21" type="car" route="west_east" depart="96.92"/>
    <vehicle id="veh_22" type="car" route="west_south" depart="100.42"/>
    <vehicle id="veh_23" type="car" route="north_east" depart="103.33"/>
    <vehicle id="veh_24" type="car" route="north_south" depart="109.09"/>
    <vehicle id="veh_25" type="car" route="east_west" depart="112.85"/>
    <vehicle id="veh_26" type="car" route="south_north" depart="117.43"/>
    <vehicle id="veh_27" type="car" route="west_east" depart="123.83"/>
    <vehicle id="veh_28" type="car" route="south_north" depart="125.10"/>
    <vehicle id="veh_29" type="car" route="south_west" depart="138.98"/>
    <vehicle id="veh_30" type="car" route="north_south" depart="144.93"/>
    <vehicle id="veh_31" type="car" route="south_east" depart="145.29"/>
    <vehicle id="veh_32" type="car" route="east_north" depart="145.50"/>
    <vehicle id="veh_33" type="car" route="west_north" depart="146.89"/>
    <vehicle id="veh_34" type="car" route="south_west" depart="147.71"/>
    <vehicle id="veh_35" type="car" route="west_south" depart="154.10"/>
    <vehicle id="veh_36" type="car" route="south_east" depart="154.15"/>
    <vehicle id="veh_37" type="car" route="south_north" depart="158.68"/>
    <vehicle id="veh_38" type="car" route="west_north" depart="164.10"/>
    <vehicle id="veh_39" type="car" route="north_south" depart="172.18"/>
    <vehicle id="veh_40" type="car" route="west_south" depart="173.10"/>
    <vehicle id="veh_41" type="car" route="south_west" depart="175.63"/>
    <vehicle id="veh_42" type="car" route="east_west" depart="176.62"/>
    <vehicle id="veh_43" type="car" route="east_north" depart="181.54"/>
    <vehicle id="veh_44" type="car" route="north_south" depart="182.41"/>
    <vehicle id="veh_45" type="car" route="west_north" depart="183.45"/>
    <vehicle id="veh_46" type="car" route="north_east" depart="186.23"/>
    <vehicle id="veh_47" type="car" route="west_east" depart="187.47"/>
    <vehicle id="veh_48" type="car" route="east_north" depart="195.98"/>
    <vehicle id="veh_49" type="car" route="east_north" depart="199.36"/>
    <vehicle id="veh_50" type="car" route="north_east" depart="201.89"/>
    <vehicle id="veh_51" type="car" route="south_east" depart="204.41"/>
    <vehicle id="veh_52" type="car" route="north_south" depart="205.79"/>
    <vehicle id="veh_53" type="car" route="east_south" depart="220.20"/>
    <vehicle id="veh_54" type="car" route="south_west" depart="229.47"/>
    <vehicle id="veh_55" type="car" route="west_south" depart="230.08"/>
    <vehicle id="veh_56" type="car" route="south_north" depart="234.16"/>
    <vehicle id="veh_57" type="car" route="south_north" depart="235.62"/>
    <vehicle id="veh_58" type="car" route="south_west" depart="247.77"/>
    <vehicle id="veh_59" type="car" route="north_south" depart="248.31"/>
    <vehicle id="veh_60" type="car" route="north_south" depart="255.62"/>
    <vehicle id="veh_61" type="car" route="east_west" depart="261.12"/>
    <vehicle id="veh_62" type="car" route="north_east" depart="262.68"/>
    <vehicle id="veh_63" type="car" route="north_east" depart="269.64"/>
    <vehicle id="veh_64" type="car" route="east_south" depart="272.77"/>
    <vehicle id="veh_65" type="car" route="north_east" depart="276.99"/>
    <vehicle id="veh_66" type="car" route="north_east" depart="277.24"/>
    <vehicle id="veh_67" type="car" route="east_south" depart="279.34"/>
    <vehicle id="veh_68" type="car" route="east_west" depart="279.49"/>
    <vehicle id="veh_69" type="car" route="east_north" depart="282.57"/>
    <vehicle id="veh_70" type="car" route="north_east" depart="293.26"/>
    <vehicle id="veh_71" type="car" route="south_west" depart="296.55"/>
    <vehicle id="veh_72" type="car" route="east_north" depart="297.02"/>
    <vehicle id="veh_73" type="car" route="north_south" depart="300.17"/>
    <vehicle id="veh_74" type="car" route="north_south" depart="302.45"/>
    <vehicle id="veh_75" type="car" route="north_south" depart="307.71"/>
    <vehicle id="veh_76" type="car" route="south_east" depart="311.63"/>
    <vehicle id="veh_77" type="car" route="south_north" depart="315.76"/>
    <vehicle id="veh_78" type="car" route="north_west" depart="322.41"/>
    <vehicle id="veh_79" type="car" route="south_west" depart="323.98"/>
    <vehicle id="veh_80" type="car" route="north_west" depart="327.55"/>
    <vehicle id="veh_81" type="car" route="west_south" depart="333.29"/>
    <vehicle id="veh_82" type="car" route="west_south" depart="340.33"/>
    <vehicle id="veh_83" type="car" route="east_west" depart="342.37"/>
    <vehicle id="veh_84" type="car" route="south_north" depart="349.02"/>
    <vehicle id="veh_85" type="car" route="east_west" depart="352.50"/>
    <vehicle id="veh_86" type="car" route="west_east" depart="358.35"/>
    <vehicle id="veh_87" type="car" route="north_south" depart="361.01"/>
    <vehicle id="veh_88" type="car" route="east_south" depart="363.86"/>
    <vehicle id="veh_89" type="car" route="north_west" depart="366.33"/>
    <vehicle id="veh_90" type="car" route="south_north" depart="366.34"/>
    <vehicle id="veh_91" type="car" route="south_north" depart="366.67"/>
    <vehicle id="veh_92" type="car" route="north_west" depart="371.97"/>
    <vehicle id="veh_93" type="car" route="west_east" depart="374.39"/>
    <vehicle id="veh_94" type="car" route="west_south" depart="374.58"/>
    <vehicle id="veh_95" type="car" route="south_east" depart="388.55"/>
    <vehicle id="veh_96" type="car" route="west_south" depart="389.52"/>
    <vehicle id="veh_97" type="car" route="west_south" depart="399.59"/>
    <vehicle id="veh_98" type="car" route="east_north" depart="405.58"/>
    <vehicle id="veh_99" type="car" route="south_north" depart="405.96"/>
    <vehicle id="veh_100" type="car" route="west_east" depart="413.03"/>
    <vehicle id="veh_101" type="car" route="north_east" depart="415.73"/>
    <vehicle id="veh_102" type="car" route="north_east" depart="417.03"/>
    <vehicle id="veh_103" type="car" route="south_north" depart="424.12"/>
    <vehicle id="veh_104" type="car" route="south_west" depart="424.96"/>
    <vehicle id="veh_105" type="car" route="south_north" depart="425.34"/>
    <vehicle id="veh_106" type="car" route="north_west" depart="428.25"/>
    <vehicle id="veh_107" type="car" route="east_west" depart="436.38"/>
    <vehicle id="veh_108" type="car" route="north_west" depart="438.06"/>
    <vehicle id="veh_109" type="car" route="south_north" depart="438.66"/>
    <vehicle id="veh_110" type="car" route="south_west" depart="440.47"/>
    <vehicle id="veh_111" type="car" route="west_south" depart="443.25"/>
    <vehicle id="veh_112" type="car" route="north_west" depart="447.76"/>
    <vehicle id="veh_113" type="car" route="west_south" depart="448.06"/>
    <vehicle id="veh_114" type="car" route="south_east" depart="452.41"/>
    <vehicle id="veh_115" type="car" route="north_west" depart="452.74"/>
    <vehicle id="veh_116" type="car" route="west_south" depart="456.80"/>
    <vehicle id="veh_117" type="car" route="west_south" depart="459.69"/>
    <vehicle id="veh_118" type="car" route="east_north" depart="461.46"/>
    <vehicle id="veh_119" type="car" route="south_west" depart="476.23"/>
    <vehicle id="veh_120" type="car" route="west_north" depart="476.44"/>
    <vehicle id="veh_121" type="car" route="west_north" depart="476.90"/>
    <vehicle id="veh_122" type="car" route="west_south" depart="476.99"/>
    <vehicle id="veh_123" type="car" route="east_west" depart="479.14"/>
    <vehicle id="veh_124" type="car" route="west_north" depart="482.06"/>
    <vehicle id="veh_125" type="car" route="north_south" depart="483.94"/>
    <vehicle id="veh_126" type="car" route="south_east" depart="484.90"/>
    <vehicle id="veh_127" type="car" route="south_west" depart="485.17"/>
    <vehicle id="veh_128" type="car" route="west_south" depart="485.67"/>
    <vehicle id="veh_129" type="car" route="north_south" depart="486.02"/>
    <vehicle id="veh_130" type="car" route="north_west" depart="486.32"/>
    <vehicle id="veh_131" type="car" route="north_east" depart="488.74"/>
    <vehicle id="veh_132" type="car" route="north_east" depart="494.22"/>
    <vehicle id="veh_133" type="car" route="north_west" depart="495.95"/>
    <vehicle id="veh_134" type="car" route="north_east" depart="498.64"/>
    <vehicle id="veh_135" type="car" route="east_south" depart="508.16"/>
    <vehicle id="veh_136" type="car" route="east_north" depart="514.76"/>
    <vehicle id="veh_137" type="car" route="south_east" depart="515.06"/>
    <vehicle id="veh_138" type="car" route="north_south" depart="517.23"/>
    <vehicle id="veh_139" type="car" route="west_north" depart="519.35"/>
    <vehicle id="veh_140" type="car" route="east_south" depart="521.78"/>
    <vehicle id="veh_141" type="car" route="west_south" depart="524.22"/>
    <vehicle id="veh_142" type="car" route="south_west" depart="524.37"/>
    <vehicle id="veh_143" type="car" route="north_south" depart="528.53"/>
    <vehicle id="veh_144" type="car" route="north_west" depart="530.42"/>
    <vehicle id="veh_145" type="car" route="west_south" depart="532.45"/>
    <vehicle id="veh_146" type="car" route="south_west" depart="537.21"/>
    <vehicle id="veh_147" type="car" route="west_south" depart="540.68"/>
    <vehicle id="veh_148" type="car" route="west_east" depart="541.27"/>
    <vehicle id="veh_149" type="car" route="south_north" depart="541.37"/>
    <vehicle id="veh_150" type="car" route="east_north" depart="542.70"/>
    <vehicle id="veh_151" type="car" route="west_north" depart="543.09"/>
    <vehicle id="veh_152" type="car" route="west_north" depart="545.51"/>
    <vehicle id="veh_153" type="car" route="east_north" depart="545.59"/>
    <vehicle id="veh_154" type="car" route="east_north" depart="549.68"/>
    <vehicle id="veh_155" type="car" route="east_north" depart="554.10"/>
    <vehicle id="veh_156" type="car" route="north_west" depart="557.90"/>
    <vehicle id="veh_157" type="car" route="west_south" depart="559.70"/>
    <vehicle id="veh_158" type="car" route="east_north" depart="566.34"/>
    <vehicle id="veh_159" type="car" route="south_north" depart="568.09"/>
    <vehicle id="veh_160" type="car" route="north_south" depart="570.94"/>
    <vehicle id="veh_161" type="car" route="north_south" depart="580.59"/>
    <vehicle id="veh_162" type="car" route="north_east" depart="588.15"/>
    <vehicle id="veh_163" type="car" route="east_west" depart="588.59"/>
    <vehicle id="veh_164" type="car" route="east_south" depart="588.93"/>
    <vehicle id="veh_165" type="car" route="west_east" depart="596.03"/>
    <vehicle id="veh_166" type="car" route="east_west" depart="603.14"/>
    <vehicle id="veh_167" type="car" route="west_north" depart="604.01"/>
    <vehicle id="veh_168" type="car" route="south_north" depart="606.18"/>
    <vehicle id="veh_169" type="car" route="south_west" depart="606.22"/>
    <vehicle id="veh_170" type="car" route="west_south" depart="610.47"/>
    <vehicle id="veh_171" type="car" route="north_east" depart="617.68"/>
    <vehicle id="veh_172" type="car" route="south_west" depart="620.75"/>
    <vehicle id="veh_173" type="car" route="north_south" depart="625.12"/>
    <vehicle id="veh_174" type="car" route="south_east" depart="625.97"/>
    <vehicle id="veh_175" type="car" route="north_west" depart="627.31"/>
    <vehicle id="veh_176" type="car" route="east_south" depart="627.90"/>
    <vehicle id="veh_177" type="car" route="east_west" depart="631.36"/>
    <vehicle id="veh_178" type="car" route="east_south" depart="634.11"/>
    <vehicle id="veh_179" type="car" route="east_north" depart="634.92"/>
    <vehicle id="veh_180" type="car" route="west_east" depart="635.18"/>
    <vehicle id="veh_181" type="car" route="north_east" depart="643.60"/>
    <vehicle id="veh_182" type="car" route="east_south" depart="648.70"/>
    <vehicle id="veh_183" type="car" route="east_north" depart="654.77"/>
    <vehicle id="veh_184" type="car" route="south_north" depart="656.50"/>
    <vehicle id="veh_185" type="car" route="west_east" depart="656.56"/>
    <vehicle id="veh_186" type="car" route="west_east" depart="657.01"/>
    <vehicle id="veh_187" type="car" route="west_east" depart="664.39"/>
    <vehicle id="veh_188" type="car" route="west_east" depart="667.69"/>
    <vehicle id="veh_189" type="car" route="west_north" depart="677.80"/>
    <vehicle id="veh_190" type="car" route="east_west" depart="680.59"/>
    <vehicle id="veh_191" type="car" route="south_west" depart="685.16"/>
    <vehicle id="veh_192" type="car" route="west_south" depart="686.03"/>
    <vehicle id="veh_193" type="car" route="east_west" depart="693.18"/>
    <vehicle id="veh_194" type="car" route="west_north" depart="702.93"/>
    <vehicle id="veh_195" type="car" route="south_east" depart="706.56"/>
    <vehicle id="veh_196" type="car" route="east_north" depart="707.01"/>
    <vehicle id="veh_197" type="car" route="north_east" depart="707.15"/>
    <vehicle id="veh_198" type="car" route="north_west" depart="717.17"/>
    <vehicle id="veh_199" type="car" route="north_east" depart="730.51"/>
    <vehicle id="veh_200" type="car" route="north_east" depart="735.07"/>
    <vehicle id="veh_201" type="car" route="east_south" depart="738.43"/>
    <vehicle id="veh_202" type="car" route="south_east" depart="739.21"/>
    <vehicle id="veh_203" type="car" route="west_south" depart="739.50"/>
    <vehicle id="veh_204" type="car" route="north_west" depart="740.45"/>
    <vehicle id="veh_205" type="car" route="south_west" depart="743.36"/>
    <vehicle id="veh_206" type="car" route="north_south" depart="743.42"/>
    <vehicle id="veh_207" type="car" route="north_south" depart="745.23"/>
    <vehicle id="veh_208" type="car" route="east_south" depart="756.86"/>
    <vehicle id="veh_209" type="car" route="south_north" depart="761.23"/>
    <vehicle id="veh_210" type="car" route="west_north" depart="777.09"/>
    <vehicle id="veh_211" type="car" route="south_east" depart="777.77"/>
    <vehicle id="veh_212" type="car" route="east_west" depart="781.68"/>
    <vehicle id="veh_213" type="car" route="west_south" depart="784.85"/>
    <vehicle id="veh_214" type="car" route="south_north" depart="786.38"/>
    <vehicle id="veh_215" type="car" route="east_west" depart="788.29"/>
    <vehicle id="veh_216" type="car" route="north_east" depart="796.64"/>
    <vehicle id="veh_217" type="car" route="south_west" depart="800.41"/>
    <vehicle id="veh_218" type="car" route="east_north" depart="801.56"/>
    <vehicle id="veh_219" type="car" route="east_south" depart="805.84"/>
    <vehicle id="veh_220" type="car" route="west_south" depart="809.01"/>
    <vehicle id="veh_221" type="car" route="south_north" depart="809.75"/>
    <vehicle id="veh_222" type="car" route="north_south" depart="814.21"/>
    <vehicle id="veh_223" type="car" route="east_west" depart="817.89"/>
    <vehicle id="veh_224" type="car" route="west_north" depart="820.15"/>
    <vehicle id="veh_225" type="car" route="east_north" depart="820.71"/>
    <vehicle id="veh_226" type="car" route="east_north" depart="820.93"/>
    <vehicle id="veh_227" type="car" route="south_north" depart="822.12"/>
    <vehicle id="veh_228" type="car" route="east_north" depart="823.20"/>
    <vehicle id="veh_229" type="car" route="east_north" depart="823.81"/>
    <vehicle id="veh_230" type="car" route="east_north" depart="830.27"/>
    <vehicle id="veh_231" type="car" route="east_north" depart="831.83"/>
    <vehicle id="veh_232" type="car" route="west_south" depart="832.49"/>
    <vehicle id="veh_233" type="car" route="west_north" depart="836.30"/>
    <vehicle id="veh_234" type="car" route="east_north" depart="838.41"/>
    <vehicle id="veh_235" type="car" route="north_east" depart="842.06"/>
    <vehicle id="veh_236" type="car" route="east_south" depart="849.74"/>
    <vehicle id="veh_237" type="car" route="north_east" depart="850.09"/>
    <vehicle id="veh_238" type="car" route="north_south" depart="854.46"/>
    <vehicle id="veh_239" type="car" route="east_west" depart="863.48"/>
    <vehicle id="veh_240" type="car" route="south_north" depart="863.86"/>
    <vehicle id="veh_241" type="car" route="south_east" depart="868.58"/>
    <vehicle id="veh_242" type="car" route="west_north" depart="878.82"/>
    <vehicle id="veh_243" type="car" route="north_south" depart="885.23"/>
    <vehicle id="veh_244" type="car" route="south_north" depart="888.96"/>
    <vehicle id="veh_245" type="car" route="east_west" depart="892.19"/>
    <vehicle id="veh_246" type="car" route="west_north" depart="897.56"/>
    <vehicle id="veh_247" type="car" route="south_east" depart="918.24"/>
    <vehicle id="veh_248" type="car" route="north_east" depart="919.26"/>
    <vehicle id="veh_249" type="car" route="south_north" depart="919.96"/>
    <vehicle id="veh_250" type="car" route="south_east" depart="921.21"/>
    <vehicle id="veh_251" type="car" route="south_east" depart="924.83"/>
    <vehicle id="veh_252" type="car" route="west_east" depart="928.81"/>
    <vehicle id="veh_253" type="car" route="north_south" depart="929.76"/>
    <vehicle id="veh_254" type="car" route="south_east" depart="931.59"/>
    <vehicle id="veh_255" type="car" route="east_south" depart="932.36"/>
    <vehicle id="veh_256" type="car" route="south_west" depart="944.50"/>
    <vehicle id="veh_257" type="car" route="east_west" depart="947.86"/>
    <vehicle id="veh_258" type="car" route="south_west" depart="949.95"/>
    <vehicle id="veh_259" type="car" route="east_north" depart="951.83"/>
    <vehicle id="veh_260" type="car" route="west_south" depart="956.16"/>
    <vehicle id="veh_261" type="car" route="west_north" depart="960.31"/>
    <vehicle id="veh_262" type="car" route="south_north" depart="960.53"/>
    <vehicle id="veh_263" type="car" route="north_west" depart="967.20"/>
    <vehicle id="veh_264" type="car" route="west_south" depart="968.31"/>
    <vehicle id="veh_265" type="car" route="east_north" depart="970.84"/>
    <vehicle id="veh_266" type="car" route="north_south" depart="975.02"/>
    <vehicle id="veh_267" type="car" route="west_north" depart="981.35"/>
    <vehicle id="veh_268" type="car" route="south_west" depart="992.34"/>
    <vehicle id="veh_269" type="car" route="north_south" depart="996.05"/>
    <vehicle id="veh_270" type="car" route="east_north" depart="1001.54"/>
    <vehicle id="veh_271" type="car" route="south_west" depart="1006.97"/>
    <vehicle id="veh_272" type="car" route="south_north" depart="1008.47"/>
    <vehicle id="veh_273" type="car" route="north_west" depart="1023.98"/>
    <vehicle id="veh_274" type="car" route="east_west" depart="1030.36"/>
    <vehicle id="veh_275" type="car" route="east_west" depart="1032.87"/>
    <vehicle id="veh_276" type="car" route="north_west" depart="1034.35"/>
    <vehicle id="veh_277" type="car" route="south_north" depart="1042.04"/>
    <vehicle id="veh_278" type="car" route="east_south" depart="1044.86"/>
    <vehicle id="veh_279" type="car" route="south_north" depart="1045.45"/>
    <vehicle id="veh_280" type="car" route="south_east" depart="1048.24"/>
    <vehicle id="veh_281" type="car" route="south_east" depart="1059.79"/>
    <vehicle id="veh_282" type="car" route="north_south" depart="1059.89"/>
    <vehicle id="veh_283" type="car" route="north_east" depart="1061.65"/>
    <vehicle id="veh_284" type="car" route="east_south" depart="1067.92"/>
    <vehicle id="veh_285" type="car" route="south_east" depart="1069.26"/>
    <vehicle id="veh_286" type="car" route="west_south" depart="1073.37"/>
    <vehicle id="veh_287" type="car" route="west_south" depart="1074.60"/>
    <vehicle id="veh_288" type="car" route="south_west" depart="1081.24"/>
    <vehicle id="veh_289" type="car" route="east_west" depart="1084.64"/>
    <vehicle id="veh_290" type="car" route="west_east" depart="1092.11"/>
    <vehicle id="veh_291" type="car" route="west_north" depart="1096.28"/>
    <vehicle id="veh_292" type="car" route="east_north" depart="1104.82"/>
    <vehicle id="veh_293" type="car" route="south_north" depart="1110.43"/>
    <vehicle id="veh_294" type="car" route="east_west" depart="1111.00"/>
    <vehicle id="veh_295" type="car" route="south_north" depart="1115.16"/>
    <vehicle id="veh_296" type="car" route="east_north" depart="1117.20"/>
    <vehicle id="veh_297" type="car" route="east_north" depart="1123.61"/>
    <vehicle id="veh_298" type="car" route="west_east" depart="1124.65"/>
    <vehicle id="veh_299" type="car" route="east_south" depart="1125.22"/>
    <vehicle id="veh_300" type="car" route="south_east" depart="1125.61"/>
    <vehicle id="veh_301" type="car" route="south_east" depart="1126.97"/>
    <vehicle id="veh_302" type="car" route="north_west" depart="1127.70"/>
    <vehicle id="veh_303" type="car" route="west_east" depart="1133.88"/>
    <vehicle id="veh_304" type="car" route="east_north" depart="1144.51"/>
    <vehicle id="veh_305" type="car" route="west_east" depart="1146.80"/>
    <vehicle id="veh_306" type="car" route="east_north" depart="1153.54"/>
    <vehicle id="veh_307" type="car" route="east_north" depart="1153.56"/>
    <vehicle id="veh_308" type="car" route="south_north" depart="1154.21"/>
    <vehicle id="veh_309" type="car" route="south_east" depart="1154.85"/>
    <vehicle id="veh_310" type="car" route="west_east" depart="1159.50"/>
    <vehicle id="veh_311" type="car" route="south_north" depart="1164.34"/>
    <vehicle id="veh_312" type="car" route="south_west" depart="1167.06"/>
    <vehicle id="veh_313" type="car" route="north_east" depart="1173.26"/>
    <vehicle id="veh_314" type="car" route="north_east" depart="1175.30"/>
    <vehicle id="veh_315" type="car" route="south_east" depart="1177.34"/>
    <vehicle id="veh_316" type="car" route="north_south" depart="1185.84"/>
    <vehicle id="veh_317" type="car" route="east_south" depart="1188.12"/>
    <vehicle id="veh_318" type="car" route="south_east" depart="1189.14"/>
    <vehicle id="veh_319" type="car" route="south_west" depart="1195.22"/>
    <vehicle id="veh_320" type="car" route="west_north" depart="1197.35"/>
    <vehicle id="veh_321" type="car" route="south_east" depart="1198.02"/>
    <vehicle id="veh_322" type="car" route="north_south" depart="1200.23"/>
    <vehicle id="veh_323" type="car" route="north_east" depart="1205.96"/>
    <vehicle id="veh_324" type="car" route="south_north" depart="1206.49"/>
    <vehicle id="veh_325" type="car" route="east_west" depart="1214.61"/>
    <vehicle id="veh_326" type="car" route="east_north" depart="1218.08"/>
    <vehicle id="veh_327" type="car" route="north_south" depart="1219.04"/>
    <vehicle id="veh_328" type="car" route="south_north" depart="1222.38"/>
    <vehicle id="veh_329" type="car" route="east_south" depart="1224.55"/>
    <vehicle id="veh_330" type="car" route="north_west" depart="1226.51"/>
    <vehicle id="veh_331" type="car" route="south_west" depart="1246.06"/>
    <vehicle id="veh_332" type="car" route="west_south" depart="1252.82"/>
    <vehicle id="veh_333" type="car" route="west_north" depart="1258.39"/>
    <vehicle id="veh_334" type="car" route="east_west" depart="1263.18"/>
    <vehicle id="veh_335" type="car" route="north_east" depart="1268.68"/>
    <vehicle id="veh_336" type="car" route="south_north" depart="1270.29"/>
    <vehicle id="veh_337" type="car" route="north_west" depart="1272.18"/>
    <vehicle id="veh_338" type="car" route="west_south" depart="1279.36"/>
    <vehicle id="veh_339" type="car" route="south_east" depart="1285.30"/>
    <vehicle id="veh_340" type="car" route="north_south" depart="1290.09"/>
    <vehicle id="veh_341" type="car" route="north_south" depart="1291.73"/>
    <vehicle id="veh_342" type="car" route="east_south" depart="1294.34"/>
    <vehicle id="veh_343" type="car" route="north_west" depart="1304.62"/>
    <vehicle id="veh_344" type="car" route="north_west" depart="1307.27"/>
    <vehicle id="veh_345" type="car" route="west_south" depart="1311.28"/>
    <vehicle id="veh_346" type="car" route="west_north" depart="1311.77"/>
    <vehicle id="veh_347" type="car" route="west_north" depart="1313.61"/>
    <vehicle id="veh_348" type="car" route="north_south" depart="1314.27"/>
    <vehicle id="veh_349" type="car" route="south_east" depart="1316.27"/>
    <vehicle id="veh_350" type="car" route="south_north" depart="1319.44"/>
    <vehicle id="veh_351" type="car" route="south_east" depart="1322.97"/>
    <vehicle id="veh_352" type="car" route="west_north" depart="1332.75"/>
    <vehicle id="veh_353" type="car" route="east_south" depart="1341.05"/>
    <vehicle id="veh_354" type="car" route="north_east" depart="1351.96"/>
    <vehicle id="veh_355" type="car" route="north_east" depart="1354.13"/>
    <vehicle id="veh_356" type="car" route="west_south" depart="1359.57"/>
    <vehicle id="veh_357" type="car" route="south_north" depart="1363.14"/>
    <vehicle id="veh_358" type="car" route="south_east" depart="1366.13"/>
    <vehicle id="veh_359" type="car" route="east_north" depart="1366.52"/>
    <vehicle id="veh_360" type="car" route="south_east" depart="1366.75"/>
    <vehicle id="veh_361" type="car" route="west_south" depart="1372.28"/>
    <vehicle id="veh_362" type="car" route="east_west" depart="1376.87"/>
    <vehicle id="veh_363" type="car" route="east_west" depart="1377.84"/>
    <vehicle id="veh_364" type="car" route="south_east" depart="1384.11"/>
    <vehicle id="veh_365" type="car" route="north_west" depart="1387.56"/>
    <vehicle id="veh_366" type="car" route="west_east" depart="1388.67"/>
    <vehicle id="veh_367" type="car" route="east_north" depart="1390.77"/>
    <vehicle id="veh_368" type="car" route="south_west" depart="1391.45"/>
    <vehicle id="veh_369" type="car" route="south_east" depart="1392.26"/>
    <vehicle id="veh_370" type="car" route="south_east" depart="1393.84"/>
    <vehicle id="veh_371" type="car" route="north_east" depart="1410.64"/>
    <vehicle id="veh_372" type="car" route="east_west" depart="1416.78"/>
    <vehicle id="veh_373" type="car" route="north_south" depart="1419.17"/>
    <vehicle id="veh_374" type="car" route="north_south" depart="1419.66"/>
    <vehicle id="veh_375" type="car" route="east_north" depart="1421.53"/>
    <vehicle id="veh_376" type="car" route="south_east" depart="1438.11"/>
    <vehicle id="veh_377" type="car" route="north_west" depart="1440.03"/>
    <vehicle id="veh_378" type="car" route="west_east" depart="1442.26"/>
    <vehicle id="veh_379" type="car" route="north_west" depart="1444.62"/>
    <vehicle id="veh_380" type="car" route="west_east" depart="1446.15"/>
    <vehicle id="veh_381" type="car" route="north_south" depart="1449.44"/>
    <vehicle id="veh_382" type="car" route="south_east" depart="1453.22"/>
    <vehicle id="veh_383" type="car" route="south_east" depart="1475.42"/>
    <vehicle id="veh_384" type="car" route="south_east" depart="1487.23"/>
    <vehicle id="veh_385" type="car" route="west_south" depart="1490.74"/>
    <vehicle id="veh_386" type="car" route="north_south" depart="1491.60"/>
    <vehicle id="veh_387" type="car" route="east_west" depart="1492.24"/>
    <vehicle id="veh_388" type="car" route="south_west" depart="1494.82"/>
    <vehicle id="veh_389" type="car" route="south_north" depart="1496.68"/>
    <vehicle id="veh_390" type="car" route="west_east" depart="1498.80"/>
    <vehicle id="veh_391" type="car" route="south_east" depart="1500.18"/>
    <vehicle id="veh_392" type="car" route="north_west" depart="1501.22"/>
    <vehicle id="veh_393" type="car" route="north_west" depart="1501.50"/>
    <vehicle id="veh_394" type="car" route="north_east" depart="1502.30"/>