<?xml version="1.0" encoding="UTF-8"?>
<routes>
    <vType id="car" accel="2.6" decel="4.5" sigma="0.5" length="5" minGap="2.5" maxSpeed="13.89" guiShape="passenger"/>

    <route id="north_south" edges="N2TL TL2S"/>
    <route id="north_east" edges="N2TL TL2E"/>
    <route id="north_west" edges="N2TL TL2W"/>
    <route id="south_north" edges="S2TL TL2N"/>
    <route id="south_east" edges="S2TL TL2E"/>
    <route id="south_west" edges="S2TL TL2W"/>
    <route id="east_north" edges="E2TL TL2N"/>
    <route id="east_south" edges="E2TL TL2S"/>
    <route id="east_west" edges="E2TL TL2W"/>
    <route id="west_north" edges="W2TL TL2N"/>
    <route id="west_south" edges="W2TL TL2S"/>
    <route id="west_east" edges="W2TL TL2E"/>

    <vehicle id="veh_0" type="car" route="west_east" depart="4.18"/>
    <vehicle id="veh_1" type="car" route="east_south" depart="6.71"/>
    <vehicle id="veh_2" type="car" route="north_west" depart="6.95"/>
    <vehicle id="veh_3" type="car" route="north_west" depart="63.67"/>
    <vehicle id="veh_4" type="car" route="east_north" depart="88.30"/>
    <vehicle id="veh_5" type="car" route="south_north" depart="106.84"/>
    <vehicle id="veh_6" type="car" route="south_west" depart="111.16"/>
    <vehicle id="veh_7" type="car" route="south_west" depart="116.56"/>
    <vehicle id="veh_8" type="car" route="east_west" depart="123.52"/>
    <vehicle id="veh_9" type="car" route="north_west" depart="129.99"/>
    <vehicle id="veh_10" type="car" route="west_south" depart="145.15"/>
    <vehicle id="veh_11" type="car" route="west_east" depart="147.69"/>
    <vehicle id="veh_12" type="car" route="west_south" depart="157.39"/>
    <vehicle id="veh_13" type="car" route="north_west" depart="171.00"/>
    <vehicle id="veh_14" type="car" route="north_east" depart="192.02"/>
    <vehicle id="veh_15" type="car" route="west_north" depart="192.67"/>
    <vehicle id="veh_16" type="car" route="east_north" depart="208.79"/>
    <vehicle id="veh_17" type="car" route="west_east" depart="217.65"/>
    <vehicle id="veh_18" type="car" route="west_north" depart="258.03"/>
    <vehicle id="veh_19" type="car" route="north_west" depart="265.31"/>
    <vehicle id="veh_20" type="car" route="south_east" depart="268.71"/>
    <vehicle id="veh_21" type="car" route="east_west" depart="272.46"/>
    <vehicle id="veh_22" type="car" route="south_west" depart="283.22"/>
    <vehicle id="veh_23" type="car" route="west_north" depart="305.35"/>
    <vehicle id="veh_24" type="car" route="south_north" depart="310.90"/>
    <vehicle id="veh_25" type="car" route="north_west" depart="319.08"/>
    <vehicle id="veh_26" type="car" route="west_north" depart="320.03"/>
    <vehicle id="veh_27" type="car" route="north_south" depart="352.03"/>
    <vehicle id="veh_28" type="car" route="north_south" depart="371.60"/>
    <vehicle id="veh_29" type="car" route="north_west" depart="373.82"/>
    <vehicle id="veh_30" type="car" route="west_south" depart="386.45"/>
    <vehicle id="veh_31" type="car" route="south_east" depart="392.44"/>
    <vehicle id="veh_32" type="car" route="north_south" depart="403.58"/>
    <vehicle id="veh_33" type="car" route="east_west" depart="411.73"/>
    <vehicle id="veh_34" type="car" route="west_east" depart="427.79"/>
    <vehicle id="veh_35" type="car" route="west_north" depart="432.20"/>
    <vehicle id="veh_36" type="car" route="north_east" depart="448.24"/>
    <vehicle id="veh_37" type="car" route="south_west" depart="453.09"/>
    <vehicle id="veh_38" type="car" route="west_south" depart="472.72"/>
    <vehicle id="veh_39" type="car" route="west_north" depart="475.01"/>
    <vehicle id="veh_40" type="car" route="east_south" depart="493.49"/>
    <vehicle id="veh_41" type="car" route="south_north" depart="508.97"/>
    <vehicle id="veh_42" type="car" route="south_west" depart="510.45"/>
    <vehicle id="veh_43" type="car" route="west_north" depart="521.29"/>
    <vehicle id="veh_44" type="car" route="west_east" depart="533.07"/>
    <vehicle id="veh_45" type="car" route="north_east" depart="550.13"/>
    <vehicle id="veh_46" type="car" route="west_north" depart="554.85"/>
    <vehicle id="veh_47" type="car" route="west_north" depart="566.28"/>
    <vehicle id="veh_48" type="car" route="south_east" depart="569.51"/>
    <vehicle id="veh_49" type="car" route="north_east" depart="573.59"/>
    <vehicle id="veh_50" type="car" route="west_east" depart="590.26"/>
    <vehicle id="veh_51" type="car" route="east_west" depart="595.72"/>
    <vehicle id="veh_52" type="car" route="south_west" depart="607.75"/>
    <vehicle id="veh_53" type="car" route="east_north" depart="611.14"/>
    <vehicle id="veh_54" type="car" route="north_east" depart="622.92"/>
    <vehicle id="veh_55" type="car" route="north_south" depart="640.44"/>
    <vehicle id="veh_56" type="car" route="east_north" depart="643.97"/>
    <vehicle id="veh_57" type="car" route="east_west" depart="651.23"/>
    <vehicle id="veh_58" type="car" route="east_north" depart="653.71"/>
    <vehicle id="veh_59" type="car" route="west_north" depart="656.81"/>
    <vehicle id="veh_60" type="car" route="north_east" depart="677.10"/>
    <vehicle id="veh_61" type="car" route="north_west" depart="678.31"/>
    <vehicle id="veh_62" type="car" route="west_north" depart="710.28"/>
    <vehicle id="veh_63" type="car" route="north_west" depart="716.91"/>
    <vehicle id="veh_64" type="car" route="north_south" depart="721.86"/>
    <vehicle id="veh_65" type="car" route="north_east" depart="725.54"/>
    <vehicle id="veh_66" type="car" route="north_west" depart="727.08"/>
    <vehicle id="veh_67" type="car" route="north_south" depart="728.68"/>
    <vehicle id="veh_68" type="car" route="south_north" depart="781.09"/>
    <vehicle id="veh_69" type="car" route="south_west" depart="789.93"/>
    <vehicle id="veh_70" type="car" route="east_west" depart="795.15"/>
    <vehicle id="veh_71" type="car" route="west_north" depart="795.96"/>
    <vehicle id="veh_72" type="car" route="east_north" depart="807.42"/>
    <vehicle id="veh_73" type="car" route="east_north" depart="843.43"/>
    <vehicle id="veh_74" type="car" route="north_south" depart="843.97"/>
    <vehicle id="veh_75" type="car" route="east_south" depart="845.63"/>
    <vehicle id="veh_76" type="car" route="south_east" depart="847.28"/>
    <vehicle id="veh_77" type="car" route="north_east" depart="871.17"/>
    <vehicle id="veh_78" type="car" route="west_south" depart="880.30"/>
    <vehicle id="veh_79" type="car" route="west_east" depart="894.93"/>
    <vehicle id="veh_80" type="car" route="south_north" depart="897.68"/>
    <vehicle id="veh_81" type="car" route="west_north" depart="909.80"/>
    <vehicle id="veh_82" type="car" route="east_west" depart="910.70"/>
    <vehicle id="veh_83" type="car" route="south_west" depart="920.81"/>
    <vehicle id="veh_84" type="car" route="west_east" depart="923.14"/>
    <vehicle id="veh_85" type="car" route="east_west" depart="928.94"/>
    <vehicle id="veh_86" type="car" route="east_south" depart="936.64"/>
    <vehicle id="veh_87" type="car" route="south_east" depart="1027.54"/>
    <vehicle id="veh_88" type="car" route="east_west" depart="1042.04"/>
    <vehicle id="veh_89" type="car" route="west_east" depart="1093.73"/>
    <vehicle id="veh_90" type="car" route="east_west" depart="1096.16"/>
    <vehicle id="veh_91" type="car" route="north_east" depart="1097.36"/>
    <vehicle id="veh_92" type="car" route="west_north" depart="1101.91"/>
    <vehicle id="veh_93" type="car" route="east_north" depart="1115.98"/>
    <vehicle id="veh_94" type="car" route="south_west" depart="1120.82"/>
    <vehicle id="veh_95" type="car" route="west_north" depart="1122.10"/>
    <vehicle id="veh_96" type="car" route="east_south" depart="1140.79"/>
    <vehicle id="veh_97" type="car" route="north_east" depart="1158.61"/>
    <vehicle id="veh_98" type="car" route="south_west" depart="1165.27"/>
    <vehicle id="veh_99" type="car" route="west_north" depart="1175.27"/>
    <vehicle id="veh_100" type="car" route="west_south" depart="1197.44"/>
    <vehicle id="veh_101" type="car" route="north_south" depart="1231.97"/>
    <vehicle id="veh_102" type="car" route="west_north" depart="1246.95"/>
    <vehicle id="veh_103" type="car" route="north_west" depart="1259.55"/>
    <vehicle id="veh_104" type="car" route="west_south" depart="1263.26"/>
    <vehicle id="veh_105" type="car" route="north_south" depart="1279.61"/>
    <vehicle id="veh_106" type="car" route="east_south" depart="1298.29"/>
    <vehicle id="veh_107" type="car" route="south_west" depart="1299.57"/>
    <vehicle id="veh_108" type="car" route="east_south" depart="1315.56"/>
    <vehicle id="veh_109" type="car" route="south_north" depart="1317.02"/>
    <vehicle id="veh_110" type="car" route="north_east" depart="1328.65"/>
    <vehicle id="veh_111" type="car" route="north_east" depart="1331.70"/>
    <vehicle id="veh_112" type="car" route="west_north" depart="1331.97"/>
    <vehicle id="veh_113" type="car" route="north_east" depart="1340.24"/>
    <vehicle id="veh_114" type="car" route="west_south" depart="1354.89"/>
    <vehicle id="veh_115" type="car" route="east_north" depart="1407.58"/>
    <vehicle id="veh_116" type="car" route="south_north" depart="1415.98"/>
    <vehicle id="veh_117" type="car" route="north_west" depart="1416.11"/>
    <vehicle id="veh_118" type="car" route="east_north" depart="1417.02"/>
    <vehicle id="veh_119" type="car" route="west_north" depart="1425.88"/>
    <vehicle id="veh_120" type="car" route="east_south" depart="1430.28"/>
    <vehicle id="veh_121" type="car" route="north_west" depart="1435.76"/>
    <vehicle id="veh_122" type="car" route="north_west" depart="1452.14"/>
    <vehicle id="veh_123" type="car" route="east_north" depart="1452.95"/>
    <vehicle id="veh_124" type="car" route="west_east" depart="1483.49"/>
    <vehicle id="veh_125" type="car" route="south_east" depart="1486.27"/>
    <vehicle id="veh_126" type="car" route="south_east" depart="1491.06"/>
    <vehicle id="veh_127" type="car" route="west_south" depart="1500.92"/>
    <vehicle id="veh_128" type="car" route="north_east" depart="1510.69"/>
    <vehicle id="veh_129" type="car" route="south_east" depart="1517.85"/>
    <vehicle id="veh_130" type="car" route="east_west" depart="1535.71"/>
    <vehicle id="veh_131" type="car" route="north_west" depart="1540.32"/>
    <vehicle id="veh_132" type="car" route="north_east" depart="1548.98"/>
    <vehicle id="veh_133" type="car" route="west_north" depart="1549.56"/>
    <vehicle id="veh_134" type="car" route="south_north" depart="1559.23"/>
    <vehicle id="veh_135" type="car" route="west_north" depart="1561.59"/>
    <vehicle id="veh_136" type="car" route="east_south" depart="1574.40"/>
    <vehicle id="veh_137" type="car" route="north_south" depart="1583.13"/>
    <vehicle id="veh_138" type="car" route="north_south" depart="1626.01"/>
    <vehicle id="veh_139" type="car" route="south_north" depart="1641.22"/>
    <vehicle id="veh_140" type="car" route="west_east" depart="1659.72"/>
    <vehicle id="veh_141" type="car" route="north_south" depart="1727.13"/>
    <vehicle id="veh_142" type="car" route="south_north" depart="1730.38"/>
    <vehicle id="veh_143" type="car" route="north_south" depart="1734.78"/>
    <vehicle id="veh_144" type="car" route="east_north" depart="1742.54"/>
    <vehicle id="veh_145" type="car" route="east_south" depart="1787.68"/>
    <vehicle id="veh_146" type="car" route="north_south" depart="1804.53"/>
    <vehicle id="veh_147" type="car" route="west_south" depart="1834.05"/>
    <vehicle id="veh_148" type="car" route="west_east" depart="1848.60"/>
    <vehicle id="veh_149" type="car" route="north_east" depart="1861.27"/>
    <vehicle id="veh_150" type="car" route="south_east" depart="1864.54"/>
    <vehicle id="veh_151" type="car" route="south_east" depart="1869.70"/>
    <vehicle id="veh_152" type="car" route="west_north" depart="1878.96"/>
    <vehicle id="veh_153" type="car" route="west_north" depart="1902.48"/>
    <vehicle id="veh_154" type="car" route="north_east" depart="1903.50"/>
    <vehicle id="veh_155" type="car" route="east_north" depart="1906.76"/>
    <vehicle id="veh_156" type="car" route="west_south" depart="1908.14"/>
    <vehicle id="veh_157" type="car" route="west_north" depart="1914.57"/>
    <vehicle id="veh_158" type="car" route="west_north" depart="1916.03"/>
    <vehicle id="veh_159" type="car" route="south_north" depart="1921.78"/>
    <vehicle id="veh_160" type="car" route="east_south" depart="1931.46"/>
    <vehicle id="veh_161" type="car" route="south_east" depart="1932.79"/>
    <vehicle id="veh_162" type="car" route="south_east" depart="1946.68"/>
    <vehicle id="veh_163" type="car" route="west_north" depart="1950.57"/>
    <vehicle id="veh_164" type="car" route="north_south" depart="1952.98"/>
    <vehicle id="veh_165" type="car" route="east_west" depart="1959.28"/>
    <vehicle id="veh_166" type="car" route="north_south" depart="1962.67"/>
    <vehicle id="veh_167" type="car" route="west_south" depart="1962.75"/>
    <vehicle id="veh_168" type="car" route="east_north" depart="1976.33"/>
    <vehicle id="veh_169" type="car" route="east_north" depart="1987.69"/>
    <vehicle id="veh_170" type="car" route="north_south" depart="2010.15"/>
    <vehicle id="veh_171" type="car" route="south_north" depart="2015.79"/>
    <vehicle id="veh_172" type="car" route="south_east" depart="2024.01"/>
    <vehicle id="veh_173" type="car" route="south_north" depart="2039.79"/>
    <vehicle id="veh_174" type="car" route="west_east" depart="2040.12"/>
    <vehicle id="veh_175" type="car" route="south_east" depart="2047.15"/>
    <vehicle id="veh_176" type="car" route="east_north" depart="2048.10"/>
    <vehicle id="veh_177" type="car" route="east_west" depart="2049.40"/>
    <vehicle id="veh_178" type="car" route="south_east" depart="2051.09"/>
    <vehicle id="veh_179" type="car" route="east_west" depart="2061.97"/>
    <vehicle id="veh_180" type="car" route="east_north" depart="2077.46"/>
    <vehicle id="veh_181" type="car" route="north_south" depart="2085.90"/>
    <vehicle id="veh_182" type="car" route="east_south" depart="2090.37"/>
    <vehicle id="veh_183" type="car" route="south_north" depart="2105.43"/>
    <vehicle id="veh_184" type="car" route="east_west" depart="2145.83"/>
    <vehicle id="veh_185" type="car" route="north_west" depart="2147.31"/>
    <vehicle id="veh_186" type="car" route="north_west" depart="2148.30"/>
    <vehicle id="veh_187" type="car" route="east_north" depart="2148.81"/>
    <vehicle id="veh_188" type="car" route="south_west" depart="2159.47"/>
    <vehicle id="veh_189" type="car" route="west_north" depart="2177.57"/>
    <vehicle id="veh_190" type="car" route="north_east" depart="2186.71"/>
    <vehicle id="veh_191" type="car" route="west_north" depart="2205.69"/>
    <vehicle id="veh_192" type="car" route="east_south" depart="2215.04"/>
    <vehicle id="veh_193" type="car" route="south_west" depart="2222.14"/>
    <vehicle id="veh_194" type="car" route="east_south" depart="2225.54"/>
    <vehicle id="veh_195" type="car" route="south_east" depart="2245.18"/>
    <vehicle id="veh_196" type="car" route="east_west" depart="2248.66"/>
    <vehicle id="veh_197" type="car" route="east_south" depart="2254.37"/>
    <vehicle id="veh_198" type="car" route="west_east" depart="2257.21"/>
    <vehicle id="veh_199" type="car" route="east_south" depart="2264.44"/>
    <vehicle id="veh_200" type="car" route="west_south" depart="2272.26"/>
    <vehicle id="veh_201" type="car" route="south_north" depart="2272.41"/>
    <vehicle id="veh_202" type="car" route="south_west" depart="2297.62"/>
    <vehicle id="veh_203" type="car" route="north_east" depart="2298.01"/>
    <vehicle id="veh_204" type="car" route="west_south" depart="2301.23"/>
    <vehicle id="veh_205" type="car" route="east_west" depart="2326.00"/>
    <vehicle id="veh_206" type="car" route="west_north" depart="2331.14"/>
    <vehicle id="veh_207" type="car" route="south_north" depart="2345.72"/>
    <vehicle id="veh_208" type="car" route="south_west" depart="2357.09"/>
    <vehicle id="veh_209" type="car" route="north_south" depart="2381.29"/>
    <vehicle id="veh_210" type="car" route="east_south" depart="2381.48"/>
    <vehicle id="veh_211" type="car" route="north_south" depart="2390.32"/>
    <vehicle id="veh_212" type="car" route="east_north" depart="2423.31"/>
    <vehicle id="veh_213" type="car" route="west_south" depart="2473.95"/>
    <vehicle id="veh_214" type="car" route="east_north" depart="2474.31"/>
    <vehicle id="veh_215" type="car" route="east_south" depart="2476.17"/>
    <vehicle id="veh_216" type="car" route="south_north" depart="2476.20"/>
    <vehicle id="veh_217" type="car" route="west_east" depart="2476.48"/>
    <vehicle id="veh_218" type="car" route="north_east" depart="2517.29"/>
    <vehicle id="veh_219" type="car" route="north_east" depart="2536.20"/>
    <vehicle id="veh_220" type="car" route="south_west" depart="2539.61"/>
    <vehicle id="veh_221" type="car" route="east_north" depart="2549.72"/>
    <vehicle id="veh_222" type="car" route="east_west" depart="2562.21"/>
    <vehicle id="veh_223" type="car" route="west_south" depart="2575.92"/>
    <vehicle id="veh_224" type="car" route="south_east" depart="2601.60"/>
    <vehicle id="veh_225" type="car" route="north_east" depart="2615.74"/>
    <vehicle id="veh_226" type="car" route="north_east" depart="2655.97"/>
    <vehicle id="veh_227" type="car" route="north_south" depart="2660.60"/>
    <vehicle id="veh_228" type="car" route="south_west" depart="2686.36"/>
    <vehicle id="veh_229" type="car" route="west_south" depart="2694.66"/>
    <vehicle id="veh_230" type="car" route="south_north" depart="2701.15"/>
    <vehicle id="veh_231" type="car" route="east_north" depart="2726.94"/>
    <vehicle id="veh_232" type="car" route="north_west" depart="2737.46"/>
    <vehicle id="veh_233" type="car" route="east_south" depart="2752.06"/>
    <vehicle id="veh_234" type="car" route="south_north" depart="2755.90"/>
    <vehicle id="veh_235" type="car" route="east_north" depart="2761.17"/>
    <vehicle id="veh_236" type="car" route="south_north" depart="2776.58"/>
    <vehicle id="veh_237" type="car" route="north_west" depart="2793.19"/>
    <vehicle id="veh_238" type="car" route="east_south" depart="2798.92"/>
    <vehicle id="veh_239" type="car" route="south_west" depart="2807.09"/>
    <vehicle id="veh_240" type="car" route="north_east" depart="2825.10"/>
    <vehicle id="veh_241" type="car" route="east_north" depart="2835.36"/>
    <vehicle id="veh_242" type="car" route="east_west" depart="2867.02"/>
    <vehicle id="veh_243" type="car" route="south_north" depart="2871.99"/>
    <vehicle id="veh_244" type="car" route="north_south" depart="2888.22"/>
    <vehicle id="veh_245" type="car" route="east_south" depart="2907.50"/>
    <vehicle id="veh_246" type="car" route="south_east" depart="2923.20"/>
    <vehicle id="veh_247" type="car" route="north_east" depart="2931.20"/>
    <vehicle id="veh_248" type="car" route="east_south" depart="2938.67"/>
    <vehicle id="veh_249" type="car" route="north_west" depart="2940.53"/>
    <vehicle id="veh_250" type="car" route="east_south" depart="2948.57"/>
    <vehicle id="veh_251" type="car" route="east_west" depart="2958.24"/>
    <vehicle id="veh_252" type="car" route="north_west" depart="2969.73"/>
    <vehicle id="veh_253" type="car" route="south_north" depart="2999.61"/>
    <vehicle id="veh_254" type="car" route="west_north" depart="3002.47"/>
    <vehicle id="veh_255" type="car" route="east_south" depart="3003.49"/>
    <vehicle id="veh_256" type="car" route="west_south" depart="3029.11"/>
    <vehicle id="veh_257" type="car" route="south_north" depart="3045.48"/>
    <vehicle id="veh_258" type="car" route="south_east" depart="3052.11"/>
    <vehicle id="veh_259" type="car" route="west_south" depart="3065.09"/>
    <vehicle id="veh_260" type="car" route="north_south" depart="3077.74"/>
    <vehicle id="veh_261" type="car" route="east_west" depart="3084.21"/>
    <vehicle id="veh_262" type="car" route="east_west" depart="3086.41"/>
    <vehicle id="veh_263" type="car" route="east_south" depart="3092.43"/>
    <vehicle id="veh_264" type="car" route="north_south" depart="3104.51"/>
    <vehicle id="veh_265" type="car" route="south_north" depart="3110.57"/>
    <vehicle id="veh_266" type="car" route="east_south" depart="3111.61"/>
    <vehicle id="veh_267" type="car" route="south_north" depart="3114.77"/>
    <vehicle id="veh_268" type="car" route="south_north" depart="3132.30"/>
    <vehicle id="veh_269" type="car" route="north_east" depart="3162.08"/>
    <vehicle id="veh_270" type="car" route="east_west" depart="3207.31"/>
    <vehicle id="veh_271" type="car" route="north_west" depart="3258.38"/>
    <vehicle id="veh_272" type="car" route="west_north" depart="3275.95"/>
    <vehicle id="veh_273" type="car" route="south_east" depart="3281.72"/>
    <vehicle id="veh_274" type="car" route="north_west" depart="3286.59"/>
    <vehicle id="veh_275" type="car" route="east_south" depart="3286.94"/>
    <vehicle id="veh_276" type="car" route="south_west" depart="3289.02"/>
    <vehicle id="veh_277" type="car" route="east_west" depart="3297.58"/>
    <vehicle id="veh_278" type="car" route="south_west" depart="3307.31"/>
    <vehicle id="veh_279" type="car" route="south_west" depart="3334.45"/>
    <vehicle id="veh_280" type="car" route="west_north" depart="3338.32"/>
    <vehicle id="veh_281" type="car" route="west_south" depart="3344.64"/>
    <vehicle id="veh_282" type="car" route="north_south" depart="3347.66"/>
    <vehicle id="veh_283" type="car" route="north_west" depart="3366.40"/>
    <vehicle id="veh_284" type="car" route="east_north" depart="3377.95"/>
    <vehicle id="veh_285" type="car" route="west_north" depart="3380.14"/>
    <vehicle id="veh_286" type="car" route="north_south" depart="3384.57"/>
    <vehicle id="veh_287" type="car" route="west_south" depart="3399.01"/>
    <vehicle id="veh_288" type="car" route="west_south" depart="3410.67"/>
    <vehicle id="veh_289" type="car" route="south_north" depart="3411.31"/>
    <vehicle id="veh_290" type="car" route="south_north" depart="3448.29"/>
    <vehicle id="veh_291" type="car" route="east_north" depart="3448.38"/>
    <vehicle id="veh_292" type="car" route="east_south" depart="3458.55"/>
    <vehicle id="veh_293" type="car" route="east_north" depart="3489.61"/>
    <vehicle id="veh_294" type="car" route="south_west" depart="3492.35"/>
    <vehicle id="veh_295" type="car" route="north_west" depart="3500.31"/>
    <vehicle id="veh_296" type="car" route="east_south" depart="3518.99"/>
    <vehicle id="veh_297" type="car" route="south_west" depart="3524.73"/>
    <vehicle id="veh_298" type="car" route="south_east" depart="3540.50"/>
    <vehicle id="veh_299" type="car" route="east_south" depart="3569.51"/>
</routes>
