<?xml version="1.0" encoding="UTF-8"?>
<routes>
    <vType id="car" accel="2.6" decel="4.5" sigma="0.5" length="5" minGap="2.5" maxSpeed="13.89" guiShape="passenger"/>

    <route id="north_south" edges="N2TL TL2S"/>
    <route id="north_east" edges="N2TL TL2E"/>
    <route id="north_west" edges="N2TL TL2W"/>
    <route id="south_north" edges="S2TL TL2N"/>
    <route id="south_east" edges="S2TL TL2E"/>
    <route id="south_west" edges="S2TL TL2W"/>
    <route id="east_north" edges="E2TL TL2N"/>
    <route id="east_south" edges="E2TL TL2S"/>
    <route id="east_west" edges="E2TL TL2W"/>
    <route id="west_north" edges="W2TL TL2N"/>
    <route id="west_south" edges="W2TL TL2S"/>
    <route id="west_east" edges="W2TL TL2E"/>

    <vehicle id="veh_0" type="car" route="south_north" depart="0.42"/>
    <vehicle id="veh_1" type="car" route="east_west" depart="3.25"/>
    <vehicle id="veh_2" type="car" route="north_west" depart="8.53"/>
    <vehicle id="veh_3" type="car" route="south_east" depart="16.15"/>
    <vehicle id="veh_4" type="car" route="north_east" depart="23.87"/>
    <vehicle id="veh_5" type="car" route="north_east" depart="24.88"/>
    <vehicle id="veh_6" type="car" route="west_east" depart="25.90"/>
    <vehicle id="veh_7" type="car" route="south_east" depart="26.19"/>
    <vehicle id="veh_8" type="car" route="north_west" depart="26.36"/>
    <vehicle id="veh_9" type="car" route="north_west" depart="28.30"/>
    <vehicle id="veh_10" type="car" route="north_east" depart="30.92"/>
    <vehicle id="veh_11" type="car" route="west_east" depart="41.37"/>
    <vehicle id="veh_12" type="car" route="south_west" depart="43.24"/>
    <vehicle id="veh_13" type="car" route="east_west" depart="43.72"/>
    <vehicle id="veh_14" type="car" route="south_east" depart="49.18"/>
    <vehicle id="veh_15" type="car" route="south_north" depart="54.57"/>
    <vehicle id="veh_16" type="car" route="south_west" depart="55.28"/>
    <vehicle id="veh_17" type="car" route="east_north" depart="55.88"/>
    <vehicle id="veh_18" type="car" route="east_south" depart="57.21"/>
    <vehicle id="veh_19" type="car" route="east_north" depart="58.19"/>
    <vehicle id="veh_20" type="car" route="north_east" depart="58.20"/>
    <vehicle id="veh_21" type="car" route="north_east" depart="61.06"/>
    <vehicle id="veh_22" type="car" route="south_east" depart="61.88"/>
    <vehicle id="veh_23" type="car" route="west_east" depart="63.78"/>
    <vehicle id="veh_24" type="car" route="west_east" depart="64.22"/>
    <vehicle id="veh_25" type="car" route="west_south" depart="68.50"/>
    <vehicle id="veh_26" type="car" route="west_south" depart="68.83"/>
    <vehicle id="veh_27" type="car" route="north_south" depart="69.23"/>
    <vehicle id="veh_28" type="car" route="east_south" depart="69.42"/>
    <vehicle id="veh_29" type="car" route="north_west" depart="70.07"/>
    <vehicle id="veh_30" type="car" route="east_south" depart="75.00"/>
    <vehicle id="veh_31" type="car" route="east_north" depart="75.81"/>
    <vehicle id="veh_32" type="car" route="west_east" depart="75.91"/>
    <vehicle id="veh_33" type="car" route="east_south" depart="77.02"/>
    <vehicle id="veh_34" type="car" route="north_east" depart="80.87"/>
    <vehicle id="veh_35" type="car" route="south_north" depart="82.60"/>
    <vehicle id="veh_36" type="car" route="east_north" depart="84.85"/>
    <vehicle id="veh_37" type="car" route="east_north" depart="85.90"/>
    <vehicle id="veh_38" type="car" route="south_west" depart="87.26"/>
    <vehicle id="veh_39" type="car" route="west_south" depart="91.38"/>
    <vehicle id="veh_40" type="car" route="east_south" depart="91.75"/>
    <vehicle id="veh_41" type="car" route="north_west" depart="93.60"/>
    <vehicle id="veh_42" type="car" route="east_south" depart="94.37"/>
    <vehicle id="veh_43" type="car" route="west_south" depart="99.98"/>
    <vehicle id="veh_44" type="car" route="east_south" depart="104.44"/>
    <vehicle id="veh_45" type="car" route="north_east" depart="106.51"/>
    <vehicle id="veh_46" type="car" route="north_west" depart="112.55"/>
    <vehicle id="veh_47" type="car" route="west_south" depart="113.74"/>
    <vehicle id="veh_48" type="car" route="south_north" depart="114.67"/>
    <vehicle id="veh_49" type="car" route="north_east" depart="114.97"/>
    <vehicle id="veh_50" type="car" route="west_south" depart="115.00"/>
    <vehicle id="veh_51" type="car" route="west_east" depart="117.94"/>
    <vehicle id="veh_52" type="car" route="east_south" depart="118.71"/>
    <vehicle id="veh_53" type="car" route="south_east" depart="120.22"/>
    <vehicle id="veh_54" type="car" route="north_west" depart="120.40"/>
    <vehicle id="veh_55" type="car" route="west_south" depart="123.26"/>
    <vehicle id="veh_56" type="car" route="south_west" depart="124.57"/>
    <vehicle id="veh_57" type="car" route="north_south" depart="127.58"/>
    <vehicle id="veh_58" type="car" route="west_east" depart="131.82"/>
    <vehicle id="veh_59" type="car" route="north_south" depart="132.25"/>
    <vehicle id="veh_60" type="car" route="east_west" depart="132.77"/>
    <vehicle id="veh_61" type="car" route="west_east" depart="133.46"/>
    <vehicle id="veh_62" type="car" route="west_east" depart="133.55"/>
    <vehicle id="veh_63" type="car" route="north_east" depart="134.00"/>
    <vehicle id="veh_64" type="car" route="north_west" depart="139.69"/>
    <vehicle id="veh_65" type="car" route="east_north" depart="140.54"/>
    <vehicle id="veh_66" type="car" route="east_north" depart="142.09"/>
    <vehicle id="veh_67" type="car" route="south_east" depart="143.04"/>
    <vehicle id="veh_68" type="car" route="west_east" depart="145.20"/>
    <vehicle id="veh_69" type="car" route="east_south" depart="151.75"/>
    <vehicle id="veh_70" type="car" route="east_south" depart="152.54"/>
    <vehicle id="veh_71" type="car" route="west_east" depart="152.75"/>
    <vehicle id="veh_72" type="car" route="east_north" depart="155.13"/>
    <vehicle id="veh_73" type="car" route="north_east" depart="155.39"/>
    <vehicle id="veh_74" type="car" route="south_east" depart="157.89"/>
    <vehicle id="veh_75" type="car" route="east_south" depart="160.18"/>
    <vehicle id="veh_76" type="car" route="west_south" depart="164.07"/>
    <vehicle id="veh_77" type="car" route="east_north" depart="167.72"/>
    <vehicle id="veh_78" type="car" route="north_south" depart="168.45"/>
    <vehicle id="veh_79" type="car" route="north_west" depart="170.45"/>
    <vehicle id="veh_80" type="car" route="north_east" depart="171.78"/>
    <vehicle id="veh_81" type="car" route="south_north" depart="173.59"/>
    <vehicle id="veh_82" type="car" route="east_north" depart="174.58"/>
    <vehicle id="veh_83" type="car" route="east_south" depart="175.89"/>
    <vehicle id="veh_84" type="car" route="north_east" depart="176.11"/>
    <vehicle id="veh_85" type="car" route="east_north" depart="177.88"/>
    <vehicle id="veh_86" type="car" route="west_north" depart="181.06"/>
    <vehicle id="veh_87" type="car" route="north_south" depart="182.92"/>
    <vehicle id="veh_88" type="car" route="north_south" depart="183.96"/>
    <vehicle id="veh_89" type="car" route="east_south" depart="185.83"/>
    <vehicle id="veh_90" type="car" route="east_south" depart="195.74"/>
    <vehicle id="veh_91" type="car" route="west_south" depart="201.41"/>
    <vehicle id="veh_92" type="car" route="west_north" depart="202.62"/>
    <vehicle id="veh_93" type="car" route="south_east" depart="203.21"/>
    <vehicle id="veh_94" type="car" route="north_west" depart="203.39"/>
    <vehicle id="veh_95" type="car" route="east_south" depart="204.99"/>
    <vehicle id="veh_96" type="car" route="south_west" depart="209.80"/>
    <vehicle id="veh_97" type="car" route="east_north" depart="212.82"/>
    <vehicle id="veh_98" type="car" route="south_east" depart="216.46"/>
    <vehicle id="veh_99" type="car" route="east_west" depart="216.60"/>
    <vehicle id="veh_100" type="car" route="east_south" depart="216.72"/>
    <vehicle id="veh_101" type="car" route="west_east" depart="220.94"/>
    <vehicle id="veh_102" type="car" route="west_east" depart="224.70"/>
    <vehicle id="veh_103" type="car" route="west_south" depart="225.02"/>
    <vehicle id="veh_104" type="car" route="north_south" depart="225.55"/>
    <vehicle id="veh_105" type="car" route="south_north" depart="228.35"/>
    <vehicle id="veh_106" type="car" route="north_west" depart="231.48"/>
    <vehicle id="veh_107" type="car" route="east_north" depart="236.04"/>
    <vehicle id="veh_108" type="car" route="south_north" depart="236.70"/>
    <vehicle id="veh_109" type="car" route="south_north" depart="238.41"/>
    <vehicle id="veh_110" type="car" route="west_east" depart="240.09"/>
    <vehicle id="veh_111" type="car" route="east_west" depart="242.43"/>
    <vehicle id="veh_112" type="car" route="east_west" depart="242.95"/>
    <vehicle id="veh_113" type="car" route="south_north" depart="243.49"/>
    <vehicle id="veh_114" type="car" route="south_west" depart="246.08"/>
    <vehicle id="veh_115" type="car" route="east_west" depart="246.49"/>
    <vehicle id="veh_116" type="car" route="east_west" depart="246.76"/>
    <vehicle id="veh_117" type="car" route="west_east" depart="248.43"/>
    <vehicle id="veh_118" type="car" route="east_south" depart="250.10"/>
    <vehicle id="veh_119" type="car" route="west_south" depart="250.53"/>
    <vehicle id="veh_120" type="car" route="north_east" depart="253.24"/>
    <vehicle id="veh_121" type="car" route="west_east" depart="253.75"/>
    <vehicle id="veh_122" type="car" route="east_south" depart="256.30"/>
    <vehicle id="veh_123" type="car" route="north_west" depart="256.72"/>
    <vehicle id="veh_124" type="car" route="west_north" depart="258.09"/>
    <vehicle id="veh_125" type="car" route="north_south" depart="260.36"/>
    <vehicle id="veh_126" type="car" route="south_west" depart="262.22"/>
    <vehicle id="veh_127" type="car" route="north_south" depart="271.09"/>
    <vehicle id="veh_128" type="car" route="west_north" depart="272.40"/>
    <vehicle id="veh_129" type="car" route="west_south" depart="274.50"/>
    <vehicle id="veh_130" type="car" route="south_west" depart="275.14"/>
    <vehicle id="veh_131" type="car" route="west_east" depart="277.38"/>
    <vehicle id="veh_132" type="car" route="south_west" depart="277.52"/>
    <vehicle id="veh_133" type="car" route="north_west" depart="281.70"/>
    <vehicle id="veh_134" type="car" route="east_north" depart="284.93"/>
    <vehicle id="veh_135" type="car" route="east_west" depart="291.50"/>
    <vehicle id="veh_136" type="car" route="west_east" depart="291.78"/>
    <vehicle id="veh_137" type="car" route="west_east" depart="292.09"/>
    <vehicle id="veh_138" type="car" route="south_west" depart="292.30"/>
    <vehicle id="veh_139" type="car" route="south_east" depart="292.95"/>
    <vehicle id="veh_140" type="car" route="south_north" depart="298.36"/>
    <vehicle id="veh_141" type="car" route="south_east" depart="300.38"/>
    <vehicle id="veh_142" type="car" route="east_west" depart="300.80"/>
    <vehicle id="veh_143" type="car" route="north_south" depart="305.72"/>
    <vehicle id="veh_144" type="car" route="south_north" depart="308.55"/>
    <vehicle id="veh_145" type="car" route="south_east" depart="308.68"/>
    <vehicle id="veh_146" type="car" route="west_east" depart="314.14"/>
    <vehicle id="veh_147" type="car" route="north_west" depart="314.76"/>
    <vehicle id="veh_148" type="car" route="west_east" depart="315.07"/>
    <vehicle id="veh_149" type="car" route="south_west" depart="320.22"/>
    <vehicle id="veh_150" type="car" route="west_east" depart="320.39"/>
    <vehicle id="veh_151" type="car" route="north_west" depart="324.43"/>
    <vehicle id="veh_152" type="car" route="north_south" depart="327.90"/>
    <vehicle id="veh_153" type="car" route="east_south" depart="335.07"/>
    <vehicle id="veh_154" type="car" route="east_south" depart="336.68"/>
    <vehicle id="veh_155" type="car" route="south_north" depart="337.84"/>
    <vehicle id="veh_156" type="car" route="north_south" depart="338.77"/>
    <vehicle id="veh_157" type="car" route="west_north" depart="340.45"/>
    <vehicle id="veh_158" type="car" route="north_south" depart="340.98"/>
    <vehicle id="veh_159" type="car" route="north_south" depart="342.62"/>
    <vehicle id="veh_160" type="car" route="west_south" depart="344.20"/>
    <vehicle id="veh_161" type="car" route="east_north" depart="345.07"/>
    <vehicle id="veh_162" type="car" route="east_north" depart="345.93"/>
    <vehicle id="veh_163" type="car" route="west_south" depart="346.32"/>
    <vehicle id="veh_164" type="car" route="south_east" depart="348.40"/>
    <vehicle id="veh_165" type="car" route="north_west" depart="355.90"/>
    <vehicle id="veh_166" type="car" route="east_west" depart="357.47"/>
    <vehicle id="veh_167" type="car" route="west_east" depart="361.87"/>
    <vehicle id="veh_168" type="car" route="north_south" depart="365.10"/>
    <vehicle id="veh_169" type="car" route="east_west" depart="366.68"/>
    <vehicle id="veh_170" type="car" route="south_west" depart="368.88"/>
    <vehicle id="veh_171" type="car" route="east_west" depart="369.42"/>
    <vehicle id="veh_172" type="car" route="west_north" depart="369.82"/>
    <vehicle id="veh_173" type="car" route="north_south" depart="370.76"/>
    <vehicle id="veh_174" type="car" route="north_west" depart="371.58"/>
    <vehicle id="veh_175" type="car" route="west_east" depart="371.91"/>
    <vehicle id="veh_176" type="car" route="west_north" depart="372.79"/>
    <vehicle id="veh_177" type="car" route="north_south" depart="377.26"/>
    <vehicle id="veh_178" type="car" route="east_north" depart="384.55"/>
    <vehicle id="veh_179" type="car" route="east_west" depart="384.87"/>
    <vehicle id="veh_180" type="car" route="west_north" depart="386.69"/>
    <vehicle id="veh_181" type="car" route="south_west" depart="388.03"/>
    <vehicle id="veh_182" type="car" route="east_west" depart="392.38"/>
    <vehicle id="veh_183" type="car" route="south_north" depart="393.27"/>
    <vehicle id="veh_184" type="car" route="south_west" depart="395.68"/>
    <vehicle id="veh_185" type="car" route="north_west" depart="401.57"/>
    <vehicle id="veh_186" type="car" route="north_east" depart="402.26"/>
    <vehicle id="veh_187" type="car" route="west_south" depart="402.78"/>
    <vehicle id="veh_188" type="car" route="east_west" depart="406.73"/>
    <vehicle id="veh_189" type="car" route="south_east" depart="407.13"/>
    <vehicle id="veh_190" type="car" route="east_north" depart="407.35"/>
    <vehicle id="veh_191" type="car" route="east_north" depart="413.18"/>
    <vehicle id="veh_192" type="car" route="west_north" depart="414.48"/>
    <vehicle id="veh_193" type="car" route="west_east" depart="416.37"/>
    <vehicle id="veh_194" type="car" route="west_east" depart="418.07"/>
    <vehicle id="veh_195" type="car" route="south_north" depart="418.47"/>
    <vehicle id="veh_196" type="car" route="east_south" depart="423.37"/>
    <vehicle id="veh_197" type="car" route="north_east" depart="423.94"/>
    <vehicle id="veh_198" type="car" route="west_north" depart="424.33"/>
    <vehicle id="veh_199" type="car" route="east_north" depart="425.65"/>
    <vehicle id="veh_200" type="car" route="east_west" depart="428.80"/>
    <vehicle id="veh_201" type="car" route="north_south" depart="429.35"/>
    <vehicle id="veh_202" type="car" route="west_south" depart="430.42"/>
    <vehicle id="veh_203" type="car" route="west_north" depart="431.42"/>
    <vehicle id="veh_204" type="car" route="west_south" depart="431.48"/>
    <vehicle id="veh_205" type="car" route="east_north" depart="432.09"/>
    <vehicle id="veh_206" type="car" route="north_west" depart="441.68"/>
    <vehicle id="veh_207" type="car" route="east_south" depart="443.83"/>
    <vehicle id="veh_208" type="car" route="north_west" depart="449.22"/>
    <vehicle id="veh_209" type="car" route="west_east" depart="450.74"/>
    <vehicle id="veh_210" type="car" route="west_north" depart="453.15"/>
    <vehicle id="veh_211" type="car" route="south_east" depart="453.49"/>
    <vehicle id="veh_212" type="car" route="east_north" depart="453.70"/>
    <vehicle id="veh_213" type="car" route="east_south" depart="455.87"/>
    <vehicle id="veh_214" type="car" route="north_south" depart="456.26"/>
    <vehicle id="veh_215" type="car" route="north_south" depart="457.32"/>
    <vehicle id="veh_216" type="car" route="north_south" depart="460.01"/>
    <vehicle id="veh_217" type="car" route="south_west" depart="466.20"/>
    <vehicle id="veh_218" type="car" route="east_north" depart="478.47"/>
    <vehicle id="veh_219" type="car" route="south_west" depart="478.79"/>
    <vehicle id="veh_220" type="car" route="east_north" depart="479.49"/>
    <vehicle id="veh_221" type="car" route="south_east" depart="483.11"/>
    <vehicle id="veh_222" type="car" route="south_west" depart="487.28"/>
    <vehicle id="veh_223" type="car" route="west_north" depart="487.66"/>
    <vehicle id="veh_224" type="car" route="north_west" depart="488.36"/>
    <vehicle id="veh_225" type="car" route="east_south" depart="488.63"/>
    <vehicle id="veh_226" type="car" route="west_east" depart="490.06"/>
    <vehicle id="veh_227" type="car" route="east_west" depart="494.72"/>
    <vehicle id="veh_228" type="car" route="east_west" depart="494.79"/>
    <vehicle id="veh_229" type="car" route="east_north" depart="495.71"/>
    <vehicle id="veh_230" type="car" route="east_north" depart="499.61"/>
    <vehicle id="veh_231" type="car" route="north_east" depart="499.67"/>
    <vehicle id="veh_232" type="car" route="west_east" depart="500.57"/>
    <vehicle id="veh_233" type="car" route="north_west" depart="502.58"/>
    <vehicle id="veh_234" type="car" route="north_south" depart="502.62"/>
    <vehicle id="veh_235" type="car" route="east_south" depart="503.81"/>
    <vehicle id="veh_236" type="car" route="north_south" depart="508.28"/>
    <vehicle id="veh_237" type="car" route="north_west" depart="510.63"/>
    <vehicle id="veh_238" type="car" route="west_east" depart="511.66"/>
    <vehicle id="veh_239" type="car" route="east_west" depart="513.88"/>
    <vehicle id="veh_240" type="car" route="east_west" depart="514.45"/>
    <vehicle id="veh_241" type="car" route="west_north" depart="514.81"/>
    <vehicle id="veh_242" type="car" route="north_south" depart="515.46"/>
    <vehicle id="veh_243" type="car" route="west_east" depart="519.43"/>
    <vehicle id="veh_244" type="car" route="east_north" depart="519.53"/>
    <vehicle id="veh_245" type="car" route="east_west" depart="522.60"/>
    <vehicle id="veh_246" type="car" route="east_west" depart="524.97"/>
    <vehicle id="veh_247" type="car" route="north_west" depart="526.30"/>
    <vehicle id="veh_248" type="car" route="west_north" depart="527.40"/>
    <vehicle id="veh_249" type="car" route="south_east" depart="530.49"/>
    <vehicle id="veh_250" type="car" route="west_east" depart="532.80"/>
    <vehicle id="veh_251" type="car" route="north_west" depart="534.15"/>
    <vehicle id="veh_252" type="car" route="west_north" depart="535.95"/>
    <vehicle id="veh_253" type="car" route="south_west" depart="537.54"/>
    <vehicle id="veh_254" type="car" route="west_east" depart="537.58"/>
    <vehicle id="veh_255" type="car" route="north_south" depart="538.19"/>
    <vehicle id="veh_256" type="car" route="north_west" depart="539.39"/>
    <vehicle id="veh_257" type="car" route="east_north" depart="544.23"/>
    <vehicle id="veh_258" type="car" route="north_west" depart="546.77"/>
    <vehicle id="veh_259" type="car" route="south_north" depart="546.99"/>
    <vehicle id="veh_260" type="car" route="west_east" depart="549.87"/>
    <vehicle id="veh_261" type="car" route="west_north" depart="551.48"/>
    <vehicle id="veh_262" type="car" route="south_east" depart="552.07"/>
    <vehicle id="veh_263" type="car" route="east_north" depart="552.31"/>
    <vehicle id="veh_264" type="car" route="south_north" depart="556.22"/>
    <vehicle id="veh_265" type="car" route="east_north" depart="558.13"/>
    <vehicle id="veh_266" type="car" route="north_south" depart="558.46"/>
    <vehicle id="veh_267" type="car" route="south_west" depart="558.87"/>
    <vehicle id="veh_268" type="car" route="south_east" depart="560.93"/>
    <vehicle id="veh_269" type="car" route="west_north" depart="562.60"/>
    <vehicle id="veh_270" type="car" route="east_west" depart="562.66"/>
    <vehicle id="veh_271" type="car" route="east_south" depart="564.59"/>
    <vehicle id="veh_272" type="car" route="west_north" depart="566.96"/>
    <vehicle id="veh_273" type="car" route="south_east" depart="571.09"/>
    <vehicle id="veh_274" type="car" route="south_east" depart="571.79"/>
    <vehicle id="veh_275" type="car" route="south_north" depart="573.83"/>
    <vehicle id="veh_276" type="car" route="west_south" depart="579.63"/>
    <vehicle id="veh_277" type="car" route="west_south" depart="582.12"/>
    <vehicle id="veh_278" type="car" route="west_north" depart="584.84"/>
    <vehicle id="veh_279" type="car" route="south_north" depart="585.21"/>
    <vehicle id="veh_280" type="car" route="south_west" depart="585.74"/>
    <vehicle id="veh_281" type="car" route="east_north" depart="586.01"/>
    <vehicle id="veh_282" type="car" route="south_north" depart="587.87"/>
    <vehicle id="veh_283" type="car" route="north_east" depart="588.30"/>
    <vehicle id="veh_284" type="car" route="south_east" depart="588.55"/>
    <vehicle id="veh_285" type="car" route="west_south" depart="592.56"/>
    <vehicle id="veh_286" type="car" route="east_south" depart="594.21"/>
    <vehicle id="veh_287" type="car" route="north_south" depart="596.13"/>
    <vehicle id="veh_288" type="car" route="north_east" depart="600.20"/>
    <vehicle id="veh_289" type="car" route="east_north" depart="600.97"/>
    <vehicle id="veh_290" type="car" route="east_west" depart="601.90"/>
    <vehicle id="veh_291" type="car" route="west_south" depart="606.25"/>
    <vehicle id="veh_292" type="car" route="south_east" depart="608.40"/>
    <vehicle id="veh_293" type="car" route="north_west" depart="611.68"/>
    <vehicle id="veh_294" type="car" route="south_west" depart="614.37"/>
    <vehicle id="veh_295" type="car" route="north_east" depart="618.27"/>
    <vehicle id="veh_296" type="car" route="west_north" depart="618.54"/>
    <vehicle id="veh_297" type="car" route="north_east" depart="621.08"/>
    <vehicle id="veh_298" type="car" route="west_east" depart="622.13"/>
    <vehicle id="veh_299" type="car" route="south_east" depart="623.70"/>
    <vehicle id="veh_300" type="car" route="east_north" depart="624.64"/>
    <vehicle id="veh_301" type="car" route="east_west" depart="626.51"/>
    <vehicle id="veh_302" type="car" route="east_south" depart="627.53"/>
    <vehicle id="veh_303" type="car" route="west_south" depart="630.01"/>
    <vehicle id="veh_304" type="car" route="south_west" depart="630.66"/>
    <vehicle id="veh_305" type="car" route="east_north" depart="634.77"/>
    <vehicle id="veh_306" type="car" route="east_south" depart="636.82"/>
    <vehicle id="veh_307" type="car" route="north_east" depart="637.83"/>
    <vehicle id="veh_308" type="car" route="west_east" depart="639.46"/>
    <vehicle id="veh_309" type="car" route="north_east" depart="640.37"/>
    <vehicle id="veh_310" type="car" route="west_east" depart="640.62"/>
    <vehicle id="veh_311" type="car" route="south_west" depart="641.69"/>
    <vehicle id="veh_312" type="car" route="south_north" depart="644.26"/>
    <vehicle id="veh_313" type="car" route="north_east" depart="646.03"/>
    <vehicle id="veh_314" type="car" route="east_west" depart="647.27"/>
    <vehicle id="veh_315" type="car" route="south_east" depart="649.87"/>
    <vehicle id="veh_316" type="car" route="west_east" depart="652.63"/>
    <vehicle id="veh_317" type="car" route="west_east" depart="655.35"/>
    <vehicle id="veh_318" type="car" route="north_east" depart="656.39"/>
    <vehicle id="veh_319" type="car" route="west_east" depart="657.93"/>
    <vehicle id="veh_320" type="car" route="west_north" depart="658.52"/>
    <vehicle id="veh_321" type="car" route="south_east" depart="660.72"/>
    <vehicle id="veh_322" type="car" route="east_west" depart="661.79"/>
    <vehicle id="veh_323" type="car" route="west_south" depart="663.11"/>
    <vehicle id="veh_324" type="car" route="south_east" depart="669.04"/>
    <vehicle id="veh_325" type="car" route="south_east" depart="669.31"/>
    <vehicle id="veh_326" type="car" route="north_south" depart="670.54"/>
    <vehicle id="veh_327" type="car" route="west_south" depart="674.33"/>
    <vehicle id="veh_328" type="car" route="south_west" depart="674.89"/>
    <vehicle id="veh_329" type="car" route="east_north" depart="675.60"/>
    <vehicle id="veh_330" type="car" route="north_south" depart="676.65"/>
    <vehicle id="veh_331" type="car" route="east_west" depart="679.30"/>
    <vehicle id="veh_332" type="car" route="west_east" depart="681.09"/>
    <vehicle id="veh_333" type="car" route="south_north" depart="683.17"/>
    <vehicle id="veh_334" type="car" route="east_west" depart="683.19"/>
    <vehicle id="veh_335" type="car" route="east_north" depart="683.38"/>
    <vehicle id="veh_336" type="car" route="west_south" depart="684.03"/>
    <vehicle id="veh_337" type="car" route="west_north" depart="684.93"/>
    <vehicle id="veh_338" type="car" route="east_west" depart="685.57"/>
    <vehicle id="veh_339" type="car" route="east_south" depart="686.94"/>
    <vehicle id="veh_340" type="car" route="north_east" depart="687.66"/>
    <vehicle id="veh_341" type="car" route="south_north" depart="687.89"/>
    <vehicle id="veh_342" type="car" route="west_south" depart="688.33"/>
    <vehicle id="veh_343" type="car" route="north_east" depart="690.13"/>
    <vehicle id="veh_344" type="car" route="south_north" depart="690.86"/>
    <vehicle id="veh_345" type="car" route="south_east" depart="691.00"/>
    <vehicle id="veh_346" type="car" route="west_south" depart="695.83"/>
    <vehicle id="veh_347" type="car" route="east_west" depart="699.44"/>
    <vehicle id="veh_348" type="car" route="east_south" depart="700.97"/>
    <vehicle id="veh_349" type="car" route="south_west" depart="701.03"/>
    <vehicle id="veh_350" type="car" route="south_west" depart="701.15"/>
    <vehicle id="veh_351" type="car" route="north_east" depart="703.18"/>
    <vehicle id="veh_352" type="car" route="north_east" depart="707.53"/>
    <vehicle id="veh_353" type="car" route="north_east" depart="708.24"/>
    <vehicle id="veh_354" type="car" route="east_south" depart="711.15"/>
    <vehicle id="veh_355" type="car" route="south_north" depart="714.11"/>
    <vehicle id="veh_356" type="car" route="south_east" depart="720.63"/>
    <vehicle id="veh_357" type="car" route="east_south" depart="720.95"/>
    <vehicle id="veh_358" type="car" route="south_north" depart="722.23"/>
    <vehicle id="veh_359" type="car" route="south_west" depart="724.04"/>
    <vehicle id="veh_360" type="car" route="east_west" depart="726.20"/>
    <vehicle id="veh_361" type="car" route="south_west" depart="730.24"/>
    <vehicle id="veh_362" type="car" route="north_east" depart="731.43"/>
    <vehicle id="veh_363" type="car" route="north_east" depart="734.02"/>
    <vehicle id="veh_364" type="car" route="north_east" depart="735.02"/>
    <vehicle id="veh_365" type="car" route="south_east" depart="736.00"/>
    <vehicle id="veh_366" type="car" route="west_south" depart="740.22"/>
    <vehicle id="veh_367" type="car" route="north_east" depart="742.09"/>
    <vehicle id="veh_368" type="car" route="west_north" depart="744.74"/>
    <vehicle id="veh_369" type="car" route="north_south" depart="744.90"/>
    <vehicle id="veh_370" type="car" route="west_north" depart="745.12"/>
    <vehicle id="veh_371" type="car" route="north_east" depart="746.27"/>
    <vehicle id="veh_372" type="car" route="west_north" depart="749.33"/>
    <vehicle id="veh_373" type="car" route="north_south" depart="749.97"/>
    <vehicle id="veh_374" type="car" route="west_east" depart="762.88"/>
    <vehicle id="veh_375" type="car" route="north_south" depart="767.81"/>
    <vehicle id="veh_376" type="car" route="east_north" depart="769.18"/>
    <vehicle id="veh_377" type="car" route="south_east" depart="769.54"/>
    <vehicle id="veh_378" type="car" route="west_south" depart="775.42"/>
    <vehicle id="veh_379" type="car" route="east_north" depart="778.87"/>
    <vehicle id="veh_380" type="car" route="south_west" depart="779.51"/>
    <vehicle id="veh_381" type="car" route="east_north" depart="783.56"/>
    <vehicle id="veh_382" type="car" route="east_south" depart="785.72"/>
    <vehicle id="veh_383" type="car" route="north_west" depart="790.39"/>
    <vehicle id="veh_384" type="car" route="south_north" depart="792.56"/>
    <vehicle id="veh_385" type="car" route="east_west" depart="803.96"/>
    <vehicle id="veh_386" type="car" route="west_south" depart="805.00"/>
    <vehicle id="veh_387" type="car" route="east_west" depart="805.31"/>
    <vehicle id="veh_388" type="car" route="west_east" depart="806.95"/>
    <vehicle id="veh_389" type="car" route="east_west" depart="807.03"/>
    <vehicle id="veh_390" type="car" route="north_east" depart="807.46"/>
    <vehicle id="veh_391" type="car" route="west_east" depart="809.32"/>
    <vehicle id="veh_392" type="car" route="east_west" depart="811.86"/>
    <vehicle id="veh_393" type="car" route="north_south" depart="812.82"/>
    <vehicle id="veh_394" type="car" route="north_south" depart="812.83"/>
    <vehicle id="veh_395" type="car" route="east_south" depart="814.04"/>
    <vehicle id="veh_396" type="car" route="east_south" depart="822.23"/>