<?xml version="1.0" encoding="UTF-8"?>
<routes>
    <vType id="car" accel="2.6" decel="4.5" sigma="0.5" length="5" minGap="2.5" maxSpeed="13.89" guiShape="passenger"/>

    <route id="north_south" edges="N2TL TL2S"/>
    <route id="north_east" edges="N2TL TL2E"/>
    <route id="north_west" edges="N2TL TL2W"/>
    <route id="south_north" edges="S2TL TL2N"/>
    <route id="south_east" edges="S2TL TL2E"/>
    <route id="south_west" edges="S2TL TL2W"/>
    <route id="east_north" edges="E2TL TL2N"/>
    <route id="east_south" edges="E2TL TL2S"/>
    <route id="east_west" edges="E2TL TL2W"/>
    <route id="west_north" edges="W2TL TL2N"/>
    <route id="west_south" edges="W2TL TL2S"/>
    <route id="west_east" edges="W2TL TL2E"/>

    <vehicle id="veh_0" type="car" route="west_south" depart="5.58"/>
    <vehicle id="veh_1" type="car" route="south_north" depart="9.89"/>
    <vehicle id="veh_2" type="car" route="north_west" depart="10.62"/>
    <vehicle id="veh_3" type="car" route="south_west" depart="14.52"/>
    <vehicle id="veh_4" type="car" route="east_south" depart="14.70"/>
    <vehicle id="veh_5" type="car" route="west_south" depart="15.71"/>
    <vehicle id="veh_6" type="car" route="south_east" depart="19.12"/>
    <vehicle id="veh_7" type="car" route="east_north" depart="28.35"/>
    <vehicle id="veh_8" type="car" route="north_south" depart="34.89"/>
    <vehicle id="veh_9" type="car" route="west_north" depart="38.60"/>
    <vehicle id="veh_10" type="car" route="west_south" depart="42.75"/>
    <vehicle id="veh_11" type="car" route="south_north" depart="49.85"/>
    <vehicle id="veh_12" type="car" route="south_east" depart="59.00"/>
    <vehicle id="veh_13" type="car" route="south_east" depart="61.63"/>
    <vehicle id="veh_14" type="car" route="east_west" depart="62.76"/>
    <vehicle id="veh_15" type="car" route="west_north" depart="63.61"/>
    <vehicle id="veh_16" type="car" route="east_north" depart="64.97"/>
    <vehicle id="veh_17" type="car" route="west_east" depart="66.28"/>
    <vehicle id="veh_18" type="car" route="north_east" depart="67.81"/>
    <vehicle id="veh_19" type="car" route="south_east" depart="72.08"/>
    <vehicle id="veh_20" type="car" route="west_north" depart="74.33"/>
    <vehicle id="veh_21" type="car" route="west_north" depart="75.45"/>
    <vehicle id="veh_22" type="car" route="east_north" depart="77.84"/>
    <vehicle id="veh_23" type="car" route="north_south" depart="78.95"/>
    <vehicle id="veh_24" type="car" route="north_south" depart="79.67"/>
    <vehicle id="veh_25" type="car" route="east_south" depart="83.68"/>
    <vehicle id="veh_26" type="car" route="south_north" depart="83.97"/>
    <vehicle id="veh_27" type="car" route="west_east" depart="85.10"/>
    <vehicle id="veh_28" type="car" route="north_east" depart="86.94"/>
    <vehicle id="veh_29" type="car" route="east_south" depart="87.97"/>
    <vehicle id="veh_30" type="car" route="west_south" depart="88.94"/>
    <vehicle id="veh_31" type="car" route="north_east" depart="90.01"/>
    <vehicle id="veh_32" type="car" route="north_south" depart="93.73"/>
    <vehicle id="veh_33" type="car" route="north_south" depart="94.02"/>
    <vehicle id="veh_34" type="car" route="north_west" depart="95.61"/>
    <vehicle id="veh_35" type="car" route="south_east" depart="101.11"/>
    <vehicle id="veh_36" type="car" route="south_north" depart="102.09"/>
    <vehicle id="veh_37" type="car" route="north_west" depart="105.51"/>
    <vehicle id="veh_38" type="car" route="south_east" depart="108.27"/>
    <vehicle id="veh_39" type="car" route="east_west" depart="114.58"/>
    <vehicle id="veh_40" type="car" route="south_east" depart="115.85"/>
    <vehicle id="veh_41" type="car" route="north_west" depart="117.72"/>
    <vehicle id="veh_42" type="car" route="south_north" depart="123.62"/>
    <vehicle id="veh_43" type="car" route="south_north" depart="127.52"/>
    <vehicle id="veh_44" type="car" route="south_east" depart="128.41"/>
    <vehicle id="veh_45" type="car" route="west_east" depart="141.24"/>
    <vehicle id="veh_46" type="car" route="east_west" depart="145.66"/>
    <vehicle id="veh_47" type="car" route="west_east" depart="147.97"/>
    <vehicle id="veh_48" type="car" route="west_east" depart="150.70"/>
    <vehicle id="veh_49" type="car" route="west_north" depart="155.52"/>
    <vehicle id="veh_50" type="car" route="north_east" depart="156.80"/>
    <vehicle id="veh_51" type="car" route="west_north" depart="160.15"/>
    <vehicle id="veh_52" type="car" route="north_east" depart="161.01"/>
    <vehicle id="veh_53" type="car" route="east_north" depart="165.91"/>
    <vehicle id="veh_54" type="car" route="west_east" depart="170.72"/>
    <vehicle id="veh_55" type="car" route="north_east" depart="182.64"/>
    <vehicle id="veh_56" type="car" route="south_west" depart="183.24"/>
    <vehicle id="veh_57" type="car" route="south_west" depart="194.00"/>
    <vehicle id="veh_58" type="car" route="east_west" depart="204.04"/>
    <vehicle id="veh_59" type="car" route="south_east" depart="206.86"/>
    <vehicle id="veh_60" type="car" route="north_west" depart="207.58"/>
    <vehicle id="veh_61" type="car" route="east_north" depart="211.93"/>
    <vehicle id="veh_62" type="car" route="south_north" depart="214.26"/>
    <vehicle id="veh_63" type="car" route="south_north" depart="214.85"/>
    <vehicle id="veh_64" type="car" route="south_north" depart="217.29"/>
    <vehicle id="veh_65" type="car" route="east_west" depart="227.77"/>
    <vehicle id="veh_66" type="car" route="north_west" depart="228.66"/>
    <vehicle id="veh_67" type="car" route="west_east" depart="229.57"/>
    <vehicle id="veh_68" type="car" route="east_south" depart="240.15"/>
    <vehicle id="veh_69" type="car" route="south_east" depart="244.16"/>
    <vehicle id="veh_70" type="car" route="south_north" depart="245.38"/>
    <vehicle id="veh_71" type="car" route="east_north" depart="246.07"/>
    <vehicle id="veh_72" type="car" route="south_west" depart="247.20"/>
    <vehicle id="veh_73" type="car" route="west_north" depart="249.02"/>
    <vehicle id="veh_74" type="car" route="west_north" depart="251.50"/>
    <vehicle id="veh_75" type="car" route="west_north" depart="253.34"/>
    <vehicle id="veh_76" type="car" route="west_north" depart="259.32"/>
    <vehicle id="veh_77" type="car" route="east_west" depart="259.67"/>
    <vehicle id="veh_78" type="car" route="north_west" depart="260.61"/>
    <vehicle id="veh_79" type="car" route="west_north" depart="264.26"/>
    <vehicle id="veh_80" type="car" route="west_south" depart="266.83"/>
    <vehicle id="veh_81" type="car" route="south_north" depart="267.71"/>
    <vehicle id="veh_82" type="car" route="east_west" depart="269.78"/>
    <vehicle id="veh_83" type="car" route="east_west" depart="270.41"/>
    <vehicle id="veh_84" type="car" route="west_south" depart="272.48"/>
    <vehicle id="veh_85" type="car" route="east_north" depart="277.45"/>
    <vehicle id="veh_86" type="car" route="east_west" depart="278.44"/>
    <vehicle id="veh_87" type="car" route="south_north" depart="279.19"/>
    <vehicle id="veh_88" type="car" route="south_west" depart="283.50"/>
    <vehicle id="veh_89" type="car" route="east_west" depart="284.34"/>
    <vehicle id="veh_90" type="car" route="south_north" depart="284.98"/>
    <vehicle id="veh_91" type="car" route="south_north" depart="287.09"/>
    <vehicle id="veh_92" type="car" route="south_west" depart="294.47"/>
    <vehicle id="veh_93" type="car" route="west_north" depart="298.14"/>
    <vehicle id="veh_94" type="car" route="south_west" depart="311.01"/>
    <vehicle id="veh_95" type="car" route="west_south" depart="312.26"/>
    <vehicle id="veh_96" type="car" route="west_east" depart="317.14"/>
    <vehicle id="veh_97" type="car" route="south_north" depart="318.93"/>
    <vehicle id="veh_98" type="car" route="south_north" depart="319.32"/>
    <vehicle id="veh_99" type="car" route="west_east" depart="325.74"/>
    <vehicle id="veh_100" type="car" route="east_west" depart="328.34"/>
    <vehicle id="veh_101" type="car" route="west_east" depart="329.53"/>
    <vehicle id="veh_102" type="car" route="east_south" depart="333.61"/>
    <vehicle id="veh_103" type="car" route="north_west" depart="341.84"/>
    <vehicle id="veh_104" type="car" route="north_west" depart="342.88"/>
    <vehicle id="veh_105" type="car" route="west_north" depart="345.35"/>
    <vehicle id="veh_106" type="car" route="south_north" depart="348.44"/>
    <vehicle id="veh_107" type="car" route="north_west" depart="351.45"/>
    <vehicle id="veh_108" type="car" route="west_east" depart="353.82"/>
    <vehicle id="veh_109" type="car" route="east_north" depart="355.91"/>
    <vehicle id="veh_110" type="car" route="east_north" depart="358.18"/>
    <vehicle id="veh_111" type="car" route="west_east" depart="360.26"/>
    <vehicle id="veh_112" type="car" route="west_east" depart="360.36"/>
    <vehicle id="veh_113" type="car" route="west_north" depart="370.10"/>
    <vehicle id="veh_114" type="car" route="east_south" depart="371.36"/>
    <vehicle id="veh_115" type="car" route="east_south" depart="374.37"/>
    <vehicle id="veh_116" type="car" route="east_north" depart="374.48"/>
    <vehicle id="veh_117" type="car" route="north_east" depart="378.71"/>
    <vehicle id="veh_118" type="car" route="south_north" depart="380.57"/>
    <vehicle id="veh_119" type="car" route="west_north" depart="382.46"/>
    <vehicle id="veh_120" type="car" route="east_west" depart="396.46"/>
    <vehicle id="veh_121" type="car" route="south_north" depart="411.73"/>
    <vehicle id="veh_122" type="car" route="south_north" depart="418.57"/>
    <vehicle id="veh_123" type="car" route="east_west" depart="425.21"/>
    <vehicle id="veh_124" type="car" route="west_east" depart="427.89"/>
    <vehicle id="veh_125" type="car" route="north_west" depart="431.62"/>
    <vehicle id="veh_126" type="car" route="east_south" depart="437.31"/>
    <vehicle id="veh_127" type="car" route="east_west" depart="440.07"/>
    <vehicle id="veh_128" type="car" route="east_west" depart="442.40"/>
    <vehicle id="veh_129" type="car" route="west_north" depart="443.46"/>
    <vehicle id="veh_130" type="car" route="north_south" depart="458.74"/>
    <vehicle id="veh_131" type="car" route="south_east" depart="462.41"/>
    <vehicle id="veh_132" type="car" route="south_east" depart="487.61"/>
    <vehicle id="veh_133" type="car" route="north_south" depart="488.66"/>
    <vehicle id="veh_134" type="car" route="east_north" depart="488.80"/>
    <vehicle id="veh_135" type="car" route="west_east" depart="489.22"/>
    <vehicle id="veh_136" type="car" route="south_north" depart="494.43"/>
    <vehicle id="veh_137" type="car" route="east_north" depart="494.78"/>
    <vehicle id="veh_138" type="car" route="west_north" depart="496.87"/>
    <vehicle id="veh_139" type="car" route="east_north" depart="502.54"/>
    <vehicle id="veh_140" type="car" route="north_west" depart="503.58"/>
    <vehicle id="veh_141" type="car" route="east_west" depart="520.20"/>
    <vehicle id="veh_142" type="car" route="east_north" depart="520.35"/>
    <vehicle id="veh_143" type="car" route="south_east" depart="522.24"/>
    <vehicle id="veh_144" type="car" route="east_west" depart="524.36"/>
    <vehicle id="veh_145" type="car" route="north_south" depart="532.14"/>
    <vehicle id="veh_146" type="car" route="north_east" depart="537.86"/>
    <vehicle id="veh_147" type="car" route="west_south" depart="539.79"/>
    <vehicle id="veh_148" type="car" route="south_north" depart="542.02"/>
    <vehicle id="veh_149" type="car" route="east_north" depart="546.06"/>
    <vehicle id="veh_150" type="car" route="north_south" depart="547.15"/>
    <vehicle id="veh_151" type="car" route="north_east" depart="547.27"/>
    <vehicle id="veh_152" type="car" route="west_north" depart="553.29"/>
    <vehicle id="veh_153" type="car" route="south_north" depart="562.37"/>
    <vehicle id="veh_154" type="car" route="east_west" depart="563.23"/>
    <vehicle id="veh_155" type="car" route="east_north" depart="566.76"/>
    <vehicle id="veh_156" type="car" route="south_north" depart="569.64"/>
    <vehicle id="veh_157" type="car" route="north_west" depart="569.99"/>
    <vehicle id="veh_158" type="car" route="south_east" depart="574.53"/>
    <vehicle id="veh_159" type="car" route="north_east" depart="577.66"/>
    <vehicle id="veh_160" type="car" route="south_east" depart="581.20"/>
    <vehicle id="veh_161" type="car" route="east_south" depart="589.37"/>
    <vehicle id="veh_162" type="car" route="south_east" depart="593.26"/>
    <vehicle id="veh_163" type="car" route="east_north" depart="600.53"/>
    <vehicle id="veh_164" type="car" route="west_north" depart="602.80"/>
    <vehicle id="veh_165" type="car" route="east_west" depart="602.97"/>
    <vehicle id="veh_166" type="car" route="east_south" depart="613.74"/>
    <vehicle id="veh_167" type="car" route="west_south" depart="617.32"/>
    <vehicle id="veh_168" type="car" route="east_north" depart="619.28"/>
    <vehicle id="veh_169" type="car" route="north_east" depart="627.85"/>
    <vehicle id="veh_170" type="car" route="south_north" depart="634.08"/>
    <vehicle id="veh_171" type="car" route="north_west" depart="638.72"/>
    <vehicle id="veh_172" type="car" route="west_north" depart="641.36"/>
    <vehicle id="veh_173" type="car" route="west_south" depart="642.21"/>
    <vehicle id="veh_174" type="car" route="south_west" depart="652.58"/>
    <vehicle id="veh_175" type="car" route="east_north" depart="661.74"/>
    <vehicle id="veh_176" type="car" route="west_east" depart="667.88"/>
    <vehicle id="veh_177" type="car" route="south_east" depart="668.50"/>
    <vehicle id="veh_178" type="car" route="north_east" depart="669.98"/>
    <vehicle id="veh_179" type="car" route="south_east" depart="670.36"/>
    <vehicle id="veh_180" type="car" route="south_east" depart="677.59"/>
    <vehicle id="veh_181" type="car" route="south_west" depart="686.20"/>
    <vehicle id="veh_182" type="car" route="west_east" depart="699.96"/>
    <vehicle id="veh_183" type="car" route="east_west" depart="710.94"/>
    <vehicle id="veh_184" type="car" route="east_south" depart="714.12"/>
    <vehicle id="veh_185" type="car" route="north_west" depart="715.04"/>
    <vehicle id="veh_186" type="car" route="north_south" depart="716.91"/>
    <vehicle id="veh_187" type="car" route="west_east" depart="722.06"/>
    <vehicle id="veh_188" type="car" route="south_west" depart="722.19"/>
    <vehicle id="veh_189" type="car" route="north_west" depart="724.74"/>
    <vehicle id="veh_190" type="car" route="south_east" depart="726.30"/>
    <vehicle id="veh_191" type="car" route="east_south" depart="726.42"/>
    <vehicle id="veh_192" type="car" route="west_east" depart="727.52"/>
    <vehicle id="veh_193" type="car" route="north_south" depart="728.32"/>
    <vehicle id="veh_194" type="car" route="east_west" depart="730.94"/>
    <vehicle id="veh_195" type="car" route="south_north" depart="732.33"/>
    <vehicle id="veh_196" type="car" route="north_west" depart="732.53"/>
    <vehicle id="veh_197" type="car" route="west_north" depart="733.99"/>
    <vehicle id="veh_198" type="car" route="north_east" depart="735.37"/>
    <vehicle id="veh_199" type="car" route="east_south" depart="737.48"/>
    <vehicle id="veh_200" type="car" route="west_north" depart="746.46"/>
    <vehicle id="veh_201" type="car" route="west_north" depart="748.54"/>
    <vehicle id="veh_202" type="car" route="north_west" depart="757.48"/>
    <vehicle id="veh_203" type="car" route="south_west" depart="758.77"/>
    <vehicle id="veh_204" type="car" route="west_south" depart="758.82"/>
    <vehicle id="veh_205" type="car" route="north_west" depart="759.19"/>
    <vehicle id="veh_206" type="car" route="north_south" depart="760.53"/>
    <vehicle id="veh_207" type="car" route="south_east" depart="767.51"/>
    <vehicle id="veh_208" type="car" route="north_east" depart="769.48"/>
    <vehicle id="veh_209" type="car" route="north_west" depart="771.37"/>
    <vehicle id="veh_210" type="car" route="south_north" depart="771.43"/>
    <vehicle id="veh_211" type="car" route="south_north" depart="773.62"/>
    <vehicle id="veh_212" type="car" route="east_south" depart="776.30"/>
    <vehicle id="veh_213" type="car" route="north_west" depart="790.27"/>
    <vehicle id="veh_214" type="car" route="north_south" depart="790.52"/>
    <vehicle id="veh_215" type="car" route="south_north" depart="790.97"/>
    <vehicle id="veh_216" type="car" route="south_north" depart="795.13"/>
    <vehicle id="veh_217" type="car" route="west_east" depart="796.27"/>
    <vehicle id="veh_218" type="car" route="south_east" depart="805.63"/>
    <vehicle id="veh_219" type="car" route="north_east" depart="808.75"/>
    <vehicle id="veh_220" type="car" route="east_north" depart="814.49"/>
    <vehicle id="veh_221" type="car" route="west_north" depart="821.42"/>
    <vehicle id="veh_222" type="car" route="north_west" depart="826.62"/>
    <vehicle id="veh_223" type="car" route="east_south" depart="827.18"/>
    <vehicle id="veh_224" type="car" route="east_north" depart="837.82"/>
    <vehicle id="veh_225" type="car" route="east_north" depart="843.42"/>
    <vehicle id="veh_226" type="car" route="west_north" depart="843.44"/>
    <vehicle id="veh_227" type="car" route="east_west" depart="843.66"/>
    <vehicle id="veh_228" type="car" route="north_south" depart="849.61"/>
    <vehicle id="veh_229" type="car" route="east_west" depart="851.24"/>
    <vehicle id="veh_230" type="car" route="west_north" depart="856.55"/>
    <vehicle id="veh_231" type="car" route="west_south" depart="860.34"/>
    <vehicle id="veh_232" type="car" route="east_west" depart="862.26"/>
    <vehicle id="veh_233" type="car" route="south_west" depart="866.73"/>
    <vehicle id="veh_234" type="car" route="east_west" depart="879.93"/>
    <vehicle id="veh_235" type="car" route="west_south" depart="885.81"/>
    <vehicle id="veh_236" type="car" route="south_west" depart="892.75"/>
    <vehicle id="veh_237" type="car" route="north_east" depart="894.01"/>
    <vehicle id="veh_238" type="car" route="north_east" depart="900.78"/>
    <vehicle id="veh_239" type="car" route="south_north" depart="920.54"/>
    <vehicle id="veh_240" type="car" route="west_south" depart="920.72"/>
    <vehicle id="veh_241" type="car" route="north_south" depart="922.09"/>
    <vehicle id="veh_242" type="car" route="east_west" depart="930.60"/>
    <vehicle id="veh_243" type="car" route="west_north" depart="937.08"/>
    <vehicle id="veh_244" type="car" route="north_east" depart="939.55"/>
    <vehicle id="veh_245" type="car" route="south_west" depart="949.54"/>
    <vehicle id="veh_246" type="car" route="north_west" depart="959.70"/>
    <vehicle id="veh_247" type="car" route="east_north" depart="973.91"/>
    <vehicle id="veh_248" type="car" route="south_east" depart="980.30"/>
    <vehicle id="veh_249" type="car" route="east_south" depart="982.71"/>
    <vehicle id="veh_250" type="car" route="north_south" depart="987.17"/>
    <vehicle id="veh_251" type="car" route="east_north" depart="1001.51"/>
    <vehicle id="veh_252" type="car" route="east_north" depart="1008.40"/>
    <vehicle id="veh_253" type="car" route="west_north" depart="1008.88"/>
    <vehicle id="veh_254" type="car" route="north_south" depart="1009.29"/>
    <vehicle id="veh_255" type="car" route="north_west" depart="1009.95"/>
    <vehicle id="veh_256" type="car" route="south_west" depart="1012.50"/>
    <vehicle id="veh_257" type="car" route="west_south" depart="1014.50"/>
    <vehicle id="veh_258" type="car" route="east_south" depart="1019.66"/>
    <vehicle id="veh_259" type="car" route="north_west" depart="1033.40"/>
    <vehicle id="veh_260" type="car" route="south_north" depart="1034.90"/>
    <vehicle id="veh_261" type="car" route="west_north" depart="1035.13"/>
    <vehicle id="veh_262" type="car" route="south_east" depart="1040.37"/>
    <vehicle id="veh_263" type="car" route="east_south" depart="1041.58"/>
    <vehicle id="veh_264" type="car" route="west_north" depart="1046.27"/>
    <vehicle id="veh_265" type="car" route="east_north" depart="1047.50"/>
    <vehicle id="veh_266" type="car" route="south_east" depart="1051.08"/>
    <vehicle id="veh_267" type="car" route="south_west" depart="1051.84"/>
    <vehicle id="veh_268" type="car" route="north_east" depart="1056.79"/>
    <vehicle id="veh_269" type="car" route="north_east" depart="1057.06"/>
    <vehicle id="veh_270" type="car" route="south_west" depart="1059.83"/>
    <vehicle id="veh_271" type="car" route="south_east" depart="1063.37"/>
    <vehicle id="veh_272" type="car" route="north_west" depart="1065.84"/>
    <vehicle id="veh_273" type="car" route="east_north" depart="1066.33"/>
    <vehicle id="veh_274" type="car" route="north_west" depart="1068.84"/>
    <vehicle id="veh_275" type="car" route="north_east" depart="1077.34"/>
    <vehicle id="veh_276" type="car" route="east_south" depart="1081.82"/>
    <vehicle id="veh_277" type="car" route="north_west" depart="1086.17"/>
    <vehicle id="veh_278" type="car" route="south_east" depart="1087.22"/>
    <vehicle id="veh_279" type="car" route="east_north" depart="1092.58"/>
    <vehicle id="veh_280" type="car" route="east_west" depart="1095.14"/>
    <vehicle id="veh_281" type="car" route="east_south" depart="1097.05"/>
    <vehicle id="veh_282" type="car" route="east_north" depart="1100.36"/>
    <vehicle id="veh_283" type="car" route="south_east" depart="1104.09"/>
    <vehicle id="veh_284" type="car" route="west_north" depart="1104.23"/>
    <vehicle id="veh_285" type="car" route="east_south" depart="1107.14"/>
    <vehicle id="veh_286" type="car" route="north_west" depart="1107.74"/>
    <vehicle id="veh_287" type="car" route="south_east" depart="1110.17"/>
    <vehicle id="veh_288" type="car" route="south_west" depart="1121.06"/>
    <vehicle id="veh_289" type="car" route="south_west" depart="1122.66"/>
    <vehicle id="veh_290" type="car" route="north_west" depart="1131.19"/>
    <vehicle id="veh_291" type="car" route="west_north" depart="1136.86"/>
    <vehicle id="veh_292" type="car" route="east_west" depart="1137.03"/>
    <vehicle id="veh_293" type="car" route="west_south" depart="1137.17"/>
    <vehicle id="veh_294" type="car" route="east_south" depart="1142.57"/>
    <vehicle id="veh_295" type="car" route="south_west" depart="1151.61"/>
    <vehicle id="veh_296" type="car" route="south_east" depart="1153.20"/>
    <vehicle id="veh_297" type="car" route="west_south" depart="1154.14"/>
    <vehicle id="veh_298" type="car" route="west_north" depart="1154.85"/>
    <vehicle id="veh_299" type="car" route="west_east" depart="1155.01"/>
    <vehicle id="veh_300" type="car" route="west_east" depart="1163.42"/>
    <vehicle id="veh_301" type="car" route="west_east" depart="1164.68"/>
    <vehicle id="veh_302" type="car" route="north_west" depart="1169.61"/>
    <vehicle id="veh_303" type="car" route="east_south" depart="1175.92"/>
    <vehicle id="veh_304" type="car" route="west_east" depart="1176.65"/>
    <vehicle id="veh_305" type="car" route="west_north" depart="1183.78"/>
    <vehicle id="veh_306" type="car" route="south_west" depart="1184.89"/>
    <vehicle id="veh_307" type="car" route="north_east" depart="1187.19"/>
    <vehicle id="veh_308" type="car" route="east_north" depart="1197.69"/>
    <vehicle id="veh_309" type="car" route="west_south" depart="1198.06"/>
    <vehicle id="veh_310" type="car" route="north_east" depart="1201.32"/>
    <vehicle id="veh_311" type="car" route="south_north" depart="1201.99"/>
    <vehicle id="veh_312" type="car" route="north_east" depart="1202.37"/>
    <vehicle id="veh_313" type="car" route="north_south" depart="1205.34"/>
    <vehicle id="veh_314" type="car" route="east_south" depart="1221.19"/>
    <vehicle id="veh_315" type="car" route="west_east" depart="1223.55"/>
    <vehicle id="veh_316" type="car" route="north_west" depart="1227.19"/>
    <vehicle id="veh_317" type="car" route="east_south" depart="1227.33"/>
    <vehicle id="veh_318" type="car" route="east_west" depart="1232.84"/>
    <vehicle id="veh_319" type="car" route="east_west" depart="1233.79"/>
    <vehicle id="veh_320" type="car" route="south_east" depart="1235.53"/>
    <vehicle id="veh_321" type="car" route="east_south" depart="1235.63"/>
    <vehicle id="veh_322" type="car" route="north_south" depart="1237.21"/>
    <vehicle id="veh_323" type="car" route="west_north" depart="1237.45"/>
    <vehicle id="veh_324" type="car" route="west_south" depart="1244.65"/>
    <vehicle id="veh_325" type="car" route="south_east" depart="1249.38"/>
    <vehicle id="veh_326" type="car" route="south_east" depart="1249.58"/>
    <vehicle id="veh_327" type="car" route="north_south" depart="1249.70"/>
    <vehicle id="veh_328" type="car" route="north_west" depart="1250.58"/>
    <vehicle id="veh_329" type="car" route="north_south" depart="1253.17"/>
    <vehicle id="veh_330" type="car" route="east_south" depart="1257.14"/>
    <vehicle id="veh_331" type="car" route="south_east" depart="1259.07"/>
    <vehicle id="veh_332" type="car" route="south_north" depart="1262.45"/>
    <vehicle id="veh_333" type="car" route="west_south" depart="1263.43"/>
    <vehicle id="veh_334" type="car" route="west_north" depart="1268.74"/>
    <vehicle id="veh_335" type="car" route="south_west" depart="1282.18"/>
    <vehicle id="veh_336" type="car" route="west_north" depart="1283.17"/>
    <vehicle id="veh_337" type="car" route="north_west" depart="1289.30"/>
    <vehicle id="veh_338" type="car" route="west_north" depart="1291.16"/>
    <vehicle id="veh_339" type="car" route="west_south" depart="1298.63"/>
    <vehicle id="veh_340" type="car" route="north_east" depart="1299.80"/>
    <vehicle id="veh_341" type="car" route="north_south" depart="1302.21"/>
    <vehicle id="veh_342" type="car" route="south_east" depart="1307.85"/>
    <vehicle id="veh_343" type="car" route="north_south" depart="1310.76"/>
    <vehicle id="veh_344" type="car" route="west_north" depart="1316.29"/>
    <vehicle id="veh_345" type="car" route="west_north" depart="1317.81"/>
    <vehicle id="veh_346" type="car" route="west_south" depart="1322.76"/>
    <vehicle id="veh_347" type="car" route="north_east" depart="1323.27"/>
    <vehicle id="veh_348" type="car" route="north_south" depart="1326.44"/>
    <vehicle id="veh_349" type="car" route="east_west" depart="1328.70"/>
    <vehicle id="veh_350" type="car" route="south_north" depart="1331.29"/>
    <vehicle id="veh_351" type="car" route="east_south" depart="1343.33"/>
    <vehicle id="veh_352" type="car" route="north_south" depart="1345.04"/>
    <vehicle id="veh_353" type="car" route="east_west" depart="1348.25"/>
    <vehicle id="veh_354" type="car" route="south_west" depart="1354.11"/>
    <vehicle id="veh_355" type="car" route="south_west" depart="1355.04"/>
    <vehicle id="veh_356" type="car" route="west_north" depart="1356.41"/>
    <vehicle id="veh_357" type="car" route="west_north" depart="1358.24"/>
    <vehicle id="veh_358" type="car" route="west_east" depart="1358.75"/>
    <vehicle id="veh_359" type="car" route="north_west" depart="1361.23"/>
    <vehicle id="veh_360" type="car" route="east_west" depart="1362.86"/>
    <vehicle id="veh_361" type="car" route="south_north" depart="1363.12"/>
    <vehicle id="veh_362" type="car" route="north_west" depart="1369.78"/>
    <vehicle id="veh_363" type="car" route="west_east" depart="1375.61"/>
    <vehicle id="veh_364" type="car" route="east_west" depart="1381.53"/>
    <vehicle id="veh_365" type="car" route="west_north" depart="1382.08"/>
    <vehicle id="veh_366" type="car" route="west_north" depart="1383.42"/>
    <vehicle id="veh_367" type="car" route="north_east" depart="1388.68"/>
    <vehicle id="veh_368" type="car" route="south_east" depart="1403.55"/>
    <vehicle id="veh_369" type="car" route="south_west" depart="1407.93"/>
    <vehicle id="veh_370" type="car" route="west_south" depart="1409.24"/>
    <vehicle id="veh_371" type="car" route="east_west" depart="1410.54"/>
    <vehicle id="veh_372" type="car" route="south_west" depart="1413.80"/>
    <vehicle id="veh_373" type="car" route="north_south" depart="1421.78"/>
    <vehicle id="veh_374" type="car" route="north_south" depart="1422.95"/>
    <vehicle id="veh_375" type="car" route="east_west" depart="1427.32"/>
    <vehicle id="veh_376" type="car" route="south_west" depart="1437.72"/>
    <vehicle id="veh_377" type="car" route="south_east" depart="1438.61"/>
    <vehicle id="veh_378" type="car" route="south_east" depart="1442.40"/>
    <vehicle id="veh_379" type="car" route="south_west" depart="1447.54"/>
    <vehicle id="veh_380" type="car" route="south_east" depart="1449.08"/>
    <vehicle id="veh_381" type="car" route="east_north" depart="1451.45"/>
    <vehicle id="veh_382" type="car" route="north_east" depart="1452.54"/>
    <vehicle id="veh_383" type="car" route="west_east" depart="1453.63"/>
    <vehicle id="veh_384" type="car" route="east_west" depart="1457.73"/>
    <vehicle id="veh_385" type="car" route="west_east" depart="1459.00"/>
    <vehicle id="veh_386" type="car" route="south_east" depart="1462.23"/>
    <vehicle id="veh_387" type="car" route="east_south" depart="1462.47"/>
    <vehicle id="veh_388" type="car" route="south_west" depart="1463.94"/>
    <vehicle id="veh_389" type="car" route="east_north" depart="1464.01"/>
    <vehicle id="veh_390" type="car" route="north_west" depart="1464.09"/>
    <vehicle id="veh_391" type="car" route="east_north" depart="1464.78"/>
    <vehicle id="veh_392" type="car" route="north_east" depart="1467.83"/>
    <vehicle id="veh_393" type="car" route="south_west" depart="1470.60"/>
    <vehicle id="veh_394" type="car" route="east_west" depart="1471.23"/>