<?xml version="1.0" encoding="UTF-8"?>
<routes>
    <vType id="standard_car" accel="0.8" decel="4.5" sigma="0.5" length="5" minGap="2.5" maxSpeed="16.67" guiShape="passenger"/>

    <route id="north_to_south" edges="N2TL TL2S"/>
    <route id="north_to_east" edges="N2TL TL2E"/>
    <route id="north_to_west" edges="N2TL TL2W"/>
    <route id="south_to_north" edges="S2TL TL2N"/>
    <route id="south_to_west" edges="S2TL TL2W"/>
    <route id="south_to_east" edges="S2TL TL2E"/>
    <route id="east_to_west" edges="E2TL TL2W"/>
    <route id="east_to_north" edges="E2TL TL2N"/>
    <route id="east_to_south" edges="E2TL TL2S"/>
    <route id="west_to_east" edges="W2TL TL2E"/>
    <route id="west_to_south" edges="W2TL TL2S"/>
    <route id="west_to_north" edges="W2TL TL2N"/>

    <vehicle id="veh_0" type="standard_car" route="north_to_east" depart="2028.91"/>
    <vehicle id="veh_1" type="standard_car" route="north_to_south" depart="811.16"/>
    <vehicle id="veh_2" type="standard_car" route="west_to_north" depart="96.97"/>
    <vehicle id="veh_3" type="standard_car" route="north_to_west" depart="378.10"/>
    <vehicle id="veh_4" type="standard_car" route="north_to_east" depart="3018.34"/>
    <vehicle id="veh_5" type="standard_car" route="north_to_west" depart="1990.36"/>
    <vehicle id="veh_6" type="standard_car" route="west_to_north" depart="76.49"/>
    <vehicle id="veh_7" type="standard_car" route="east_to_west" depart="14.83"/>
    <vehicle id="veh_8" type="standard_car" route="north_to_south" depart="1454.84"/>
    <vehicle id="veh_9" type="standard_car" route="east_to_south" depart="916.77"/>
    <vehicle id="veh_10" type="standard_car" route="south_to_west" depart="621.02"/>
    <vehicle id="veh_11" type="standard_car" route="east_to_west" depart="486.54"/>
    <vehicle id="veh_12" type="standard_car" route="north_to_west" depart="1622.29"/>
    <vehicle id="veh_13" type="standard_car" route="north_to_east" depart="1220.07"/>
    <vehicle id="veh_14" type="standard_car" route="east_to_west" depart="1221.36"/>
    <vehicle id="veh_15" type="standard_car" route="east_to_north" depart="2554.48"/>
    <vehicle id="veh_16" type="standard_car" route="south_to_north" depart="1684.00"/>
    <vehicle id="veh_17" type="standard_car" route="east_to_south" depart="3571.03"/>
    <vehicle id="veh_18" type="standard_car" route="west_to_east" depart="2877.47"/>
    <vehicle id="veh_19" type="standard_car" route="east_to_south" depart="2319.86"/>
    <vehicle id="veh_20" type="standard_car" route="south_to_north" depart="721.61"/>
    <vehicle id="veh_21" type="standard_car" route="north_to_west" depart="1040.56"/>
    <vehicle id="veh_22" type="standard_car" route="west_to_east" depart="95.17"/>
    <vehicle id="veh_23" type="standard_car" route="north_to_west" depart="3377.76"/>
    <vehicle id="veh_24" type="standard_car" route="west_to_south" depart="973.44"/>
    <vehicle id="veh_25" type="standard_car" route="south_to_east" depart="2955.56"/>
    <vehicle id="veh_26" type="standard_car" route="north_to_south" depart="729.14"/>
    <vehicle id="veh_27" type="standard_car" route="north_to_south" depart="1787.36"/>
    <vehicle id="veh_28" type="standard_car" route="south_to_east" depart="2467.97"/>
    <vehicle id="veh_29" type="standard_car" route="west_to_south" depart="2363.51"/>
    <vehicle id="veh_30" type="standard_car" route="north_to_south" depart="1911.69"/>
    <vehicle id="veh_31" type="standard_car" route="north_to_east" depart="3322.49"/>
    <vehicle id="veh_32" type="standard_car" route="east_to_west" depart="2845.37"/>
    <vehicle id="veh_33" type="standard_car" route="west_to_north" depart="1588.83"/>
    <vehicle id="veh_34" type="standard_car" route="north_to_west" depart="2000.59"/>
    <vehicle id="veh_35" type="standard_car" route="west_to_north" depart="3467.20"/>
    <vehicle id="veh_36" type="standard_car" route="east_to_north" depart="838.44"/>
    <vehicle id="veh_37" type="standard_car" route="north_to_east" depart="598.83"/>
    <vehicle id="veh_38" type="standard_car" route="south_to_west" depart="507.32"/>
    <vehicle id="veh_39" type="standard_car" route="east_to_south" depart="3495.74"/>
    <vehicle id="veh_40" type="standard_car" route="west_to_south" depart="677.66"/>
    <vehicle id="veh_41" type="standard_car" route="north_to_west" depart="942.86"/>
    <vehicle id="veh_42" type="standard_car" route="south_to_west" depart="2964.17"/>
    <vehicle id="veh_43" type="standard_car" route="south_to_west" depart="2264.60"/>
    <vehicle id="veh_44" type="standard_car" route="north_to_south" depart="1010.55"/>
    <vehicle id="veh_45" type="standard_car" route="east_to_north" depart="2041.50"/>
    <vehicle id="veh_46" type="standard_car" route="west_to_south" depart="58.01"/>
    <vehicle id="veh_47" type="standard_car" route="west_to_east" depart="2406.52"/>
    <vehicle id="veh_48" type="standard_car" route="south_to_west" depart="2117.36"/>
    <vehicle id="veh_49" type="standard_car" route="south_to_west" depart="3428.42"/>
    <vehicle id="veh_50" type="standard_car" route="north_to_south" depart="2389.53"/>
    <vehicle id="veh_51" type="standard_car" route="south_to_north" depart="2320.44"/>
    <vehicle id="veh_52" type="standard_car" route="north_to_west" depart="628.87"/>
    <vehicle id="veh_53" type="standard_car" route="south_to_east" depart="922.16"/>
    <vehicle id="veh_54" type="standard_car" route="west_to_north" depart="2463.08"/>
    <vehicle id="veh_55" type="standard_car" route="south_to_west" depart="1733.02"/>
    <vehicle id="veh_56" type="standard_car" route="west_to_east" depart="3098.42"/>
    <vehicle id="veh_57" type="standard_car" route="south_to_east" depart="1180.81"/>
    <vehicle id="veh_58" type="standard_car" route="east_to_west" depart="560.87"/>
    <vehicle id="veh_59" type="standard_car" route="east_to_west" depart="1337.19"/>
    <vehicle id="veh_60" type="standard_car" route="east_to_north" depart="866.58"/>
    <vehicle id="veh_61" type="standard_car" route="west_to_north" depart="106.19"/>
    <vehicle id="veh_62" type="standard_car" route="east_to_south" depart="1255.67"/>
    <vehicle id="veh_63" type="standard_car" route="west_to_east" depart="3522.84"/>
    <vehicle id="veh_64" type="standard_car" route="west_to_north" depart="480.18"/>
    <vehicle id="veh_65" type="standard_car" route="north_to_south" depart="288.17"/>
    <vehicle id="veh_66" type="standard_car" route="west_to_east" depart="1008.03"/>
    <vehicle id="veh_67" type="standard_car" route="east_to_west" depart="488.25"/>
    <vehicle id="veh_68" type="standard_car" route="east_to_south" depart="1523.30"/>
    <vehicle id="veh_69" type="standard_car" route="south_to_north" depart="544.08"/>
    <vehicle id="veh_70" type="standard_car" route="west_to_north" depart="431.10"/>
    <vehicle id="veh_71" type="standard_car" route="west_to_east" depart="3371.30"/>
    <vehicle id="veh_72" type="standard_car" route="south_to_east" depart="240.34"/>
    <vehicle id="veh_73" type="standard_car" route="west_to_east" depart="1267.89"/>
    <vehicle id="veh_74" type="standard_car" route="north_to_south" depart="586.49"/>
    <vehicle id="veh_75" type="standard_car" route="west_to_north" depart="3101.82"/>
    <vehicle id="veh_76" type="standard_car" route="south_to_west" depart="349.42"/>
    <vehicle id="veh_77" type="standard_car" route="north_to_east" depart="2622.87"/>
    <vehicle id="veh_78" type="standard_car" route="south_to_north" depart="341.51"/>
    <vehicle id="veh_79" type="standard_car" route="west_to_east" depart="2663.39"/>
    <vehicle id="veh_80" type="standard_car" route="east_to_north" depart="928.36"/>
    <vehicle id="veh_81" type="standard_car" route="north_to_east" depart="515.97"/>
    <vehicle id="veh_82" type="standard_car" route="east_to_north" depart="1273.31"/>
    <vehicle id="veh_83" type="standard_car" route="west_to_north" depart="2364.67"/>
    <vehicle id="veh_84" type="standard_car" route="west_to_north" depart="2345.57"/>
    <vehicle id="veh_85" type="standard_car" route="west_to_north" depart="63.89"/>
    <vehicle id="veh_86" type="standard_car" route="north_to_south" depart="850.18"/>
    <vehicle id="veh_87" type="standard_car" route="east_to_west" depart="1825.87"/>
    <vehicle id="veh_88" type="standard_car" route="north_to_west" depart="422.04"/>
    <vehicle id="veh_89" type="standard_car" route="north_to_south" depart="1376.45"/>
    <vehicle id="veh_90" type="standard_car" route="north_to_east" depart="1285.27"/>
    <vehicle id="veh_91" type="standard_car" route="north_to_south" depart="1279.65"/>
    <vehicle id="veh_92" type="standard_car" route="west_to_north" depart="2401.31"/>
    <vehicle id="veh_93" type="standard_car" route="north_to_south" depart="1256.70"/>
    <vehicle id="veh_94" type="standard_car" route="west_to_north" depart="2022.03"/>
    <vehicle id="veh_95" type="standard_car" route="east_to_south" depart="1739.33"/>
    <vehicle id="veh_96" type="standard_car" route="south_to_north" depart="1266.78"/>
    <vehicle id="veh_97" type="standard_car" route="east_to_north" depart="1662.00"/>
    <vehicle id="veh_98" type="standard_car" route="east_to_south" depart="3217.71"/>
    <vehicle id="veh_99" type="standard_car" route="east_to_south" depart="3036.65"/>
    <vehicle id="veh_100" type="standard_car" route="west_to_east" depart="3101.47"/>
    <vehicle id="veh_101" type="standard_car" route="east_to_south" depart="2285.71"/>
    <vehicle id="veh_102" type="standard_car" route="south_to_east" depart="3005.49"/>
    <vehicle id="veh_103" type="standard_car" route="north_to_east" depart="1418.81"/>
    <vehicle id="veh_104" type="standard_car" route="south_to_west" depart="1303.53"/>
    <vehicle id="veh_105" type="standard_car" route="west_to_south" depart="1031.66"/>
    <vehicle id="veh_106" type="standard_car" route="north_to_east" depart="3349.47"/>
    <vehicle id="veh_107" type="standard_car" route="west_to_south" depart="2249.06"/>
    <vehicle id="veh_108" type="standard_car" route="south_to_west" depart="456.12"/>
    <vehicle id="veh_109" type="standard_car" route="east_to_west" depart="2476.59"/>
    <vehicle id="veh_110" type="standard_car" route="north_to_east" depart="760.30"/>
    <vehicle id="veh_111" type="standard_car" route="south_to_north" depart="343.12"/>
    <vehicle id="veh_112" type="standard_car" route="south_to_west" depart="1854.71"/>
    <vehicle id="veh_113" type="standard_car" route="west_to_north" depart="596.38"/>
    <vehicle id="veh_114" type="standard_car" route="east_to_north" depart="2232.76"/>
    <vehicle id="veh_115" type="standard_car" route="west_to_north" depart="3410.50"/>
    <vehicle id="veh_116" type="standard_car" route="north_to_west" depart="3087.32"/>
    <vehicle id="veh_117" type="standard_car" route="north_to_west" depart="1095.47"/>
    <vehicle id="veh_118" type="standard_car" route="west_to_east" depart="907.23"/>
    <vehicle id="veh_119" type="standard_car" route="east_to_north" depart="3018.60"/>
    <vehicle id="veh_120" type="standard_car" route="west_to_north" depart="2333.64"/>
    <vehicle id="veh_121" type="standard_car" route="south_to_east" depart="2683.38"/>
    <vehicle id="veh_122" type="standard_car" route="north_to_west" depart="813.30"/>
    <vehicle id="veh_123" type="standard_car" route="west_to_north" depart="281.50"/>
    <vehicle id="veh_124" type="standard_car" route="south_to_west" depart="1409.05"/>
    <vehicle id="veh_125" type="standard_car" route="north_to_south" depart="3345.43"/>
    <vehicle id="veh_126" type="standard_car" route="north_to_south" depart="2175.87"/>
    <vehicle id="veh_127" type="standard_car" route="east_to_west" depart="2357.15"/>
    <vehicle id="veh_128" type="standard_car" route="south_to_east" depart="166.41"/>
    <vehicle id="veh_129" type="standard_car" route="south_to_east" depart="3183.94"/>
    <vehicle id="veh_130" type="standard_car" route="north_to_east" depart="244.97"/>
    <vehicle id="veh_131" type="standard_car" route="east_to_west" depart="2574.87"/>
    <vehicle id="veh_132" type="standard_car" route="west_to_south" depart="1129.41"/>
    <vehicle id="veh_133" type="standard_car" route="south_to_east" depart="2010.94"/>
    <vehicle id="veh_134" type="standard_car" route="north_to_west" depart="556.90"/>
    <vehicle id="veh_135" type="standard_car" route="west_to_north" depart="1395.15"/>
    <vehicle id="veh_136" type="standard_car" route="north_to_south" depart="2468.42"/>
    <vehicle id="veh_137" type="standard_car" route="north_to_south" depart="3218.42"/>
    <vehicle id="veh_138" type="standard_car" route="west_to_east" depart="1425.63"/>
    <vehicle id="veh_139" type="standard_car" route="west_to_south" depart="2810.15"/>
    <vehicle id="veh_140" type="standard_car" route="west_to_east" depart="805.75"/>
    <vehicle id="veh_141" type="standard_car" route="south_to_east" depart="807.04"/>
    <vehicle id="veh_142" type="standard_car" route="north_to_west" depart="1096.07"/>
    <vehicle id="veh_143" type="standard_car" route="south_to_east" depart="1825.82"/>
    <vehicle id="veh_144" type="standard_car" route="west_to_north" depart="815.56"/>
    <vehicle id="veh_145" type="standard_car" route="south_to_east" depart="2873.70"/>
    <vehicle id="veh_146" type="standard_car" route="south_to_east" depart="814.20"/>
    <vehicle id="veh_147" type="standard_car" route="north_to_south" depart="3167.06"/>
    <vehicle id="veh_148" type="standard_car" route="south_to_west" depart="2094.61"/>
    <vehicle id="veh_149" type="standard_car" route="east_to_north" depart="1582.57"/>
    <vehicle id="veh_150" type="standard_car" route="west_to_north" depart="3388.82"/>
    <vehicle id="veh_151" type="standard_car" route="west_to_east" depart="524.31"/>
    <vehicle id="veh_152" type="standard_car" route="east_to_south" depart="2706.60"/>
    <vehicle id="veh_153" type="standard_car" route="north_to_west" depart="3288.90"/>
    <vehicle id="veh_154" type="standard_car" route="south_to_north" depart="531.39"/>
    <vehicle id="veh_155" type="standard_car" route="south_to_north" depart="3078.85"/>
    <vehicle id="veh_156" type="standard_car" route="south_to_west" depart="3446.31"/>
    <vehicle id="veh_157" type="standard_car" route="west_to_south" depart="1856.43"/>
    <vehicle id="veh_158" type="standard_car" route="north_to_south" depart="1543.96"/>
    <vehicle id="veh_159" type="standard_car" route="north_to_south" depart="2608.80"/>
    <vehicle id="veh_160" type="standard_car" route="north_to_east" depart="1007.26"/>
    <vehicle id="veh_161" type="standard_car" route="north_to_west" depart="672.50"/>
    <vehicle id="veh_162" type="standard_car" route="south_to_east" depart="1157.24"/>
    <vehicle id="veh_163" type="standard_car" route="east_to_south" depart="539.37"/>
    <vehicle id="veh_164" type="standard_car" route="east_to_south" depart="1003.14"/>
    <vehicle id="veh_165" type="standard_car" route="north_to_south" depart="3366.31"/>
    <vehicle id="veh_166" type="standard_car" route="east_to_south" depart="3442.02"/>
    <vehicle id="veh_167" type="standard_car" route="east_to_south" depart="1505.37"/>
    <vehicle id="veh_168" type="standard_car" route="east_to_north" depart="2417.68"/>
    <vehicle id="veh_169" type="standard_car" route="south_to_east" depart="1581.96"/>
    <vehicle id="veh_170" type="standard_car" route="south_to_west" depart="2684.50"/>
    <vehicle id="veh_171" type="standard_car" route="west_to_east" depart="31.28"/>
    <vehicle id="veh_172" type="standard_car" route="north_to_west" depart="1178.18"/>
    <vehicle id="veh_173" type="standard_car" route="west_to_south" depart="3066.38"/>
    <vehicle id="veh_174" type="standard_car" route="east_to_west" depart="62.18"/>
    <vehicle id="veh_175" type="standard_car" route="south_to_north" depart="2337.91"/>
    <vehicle id="veh_176" type="standard_car" route="south_to_east" depart="1117.62"/>
    <vehicle id="veh_177" type="standard_car" route="west_to_north" depart="1692.58"/>
    <vehicle id="veh_178" type="standard_car" route="north_to_south" depart="64.70"/>
    <vehicle id="veh_179" type="standard_car" route="west_to_east" depart="2388.29"/>
    <vehicle id="veh_180" type="standard_car" route="west_to_north" depart="1917.04"/>
    <vehicle id="veh_181" type="standard_car" route="east_to_west" depart="2079.38"/>
    <vehicle id="veh_182" type="standard_car" route="west_to_south" depart="3394.08"/>
    <vehicle id="veh_183" type="standard_car" route="south_to_north" depart="3298.84"/>
    <vehicle id="veh_184" type="standard_car" route="east_to_west" depart="791.02"/>
    <vehicle id="veh_185" type="standard_car" route="west_to_east" depart="2273.79"/>
    <vehicle id="veh_186" type="standard_car" route="north_to_east" depart="1352.40"/>
    <vehicle id="veh_187" type="standard_car" route="south_to_east" depart="461.74"/>
    <vehicle id="veh_188" type="standard_car" route="south_to_west" depart="1424.93"/>
    <vehicle id="veh_189" type="standard_car" route="east_to_south" depart="844.35"/>
    <vehicle id="veh_190" type="standard_car" route="south_to_east" depart="3228.32"/>
    <vehicle id="veh_191" type="standard_car" route="south_to_east" depart="1348.17"/>
    <vehicle id="veh_192" type="standard_car" route="east_to_north" depart="3226.86"/>
    <vehicle id="veh_193" type="standard_car" route="south_to_west" depart="975.08"/>
    <vehicle id="veh_194" type="standard_car" route="north_to_east" depart="550.35"/>
    <vehicle id="veh_195" type="standard_car" route="south_to_north" depart="1105.62"/>
    <vehicle id="veh_196" type="standard_car" route="south_to_north" depart="2422.68"/>
    <vehicle id="veh_197" type="standard_car" route="south_to_west" depart="182.61"/>
    <vehicle id="veh_198" type="standard_car" route="west_to_north" depart="1836.55"/>
    <vehicle id="veh_199" type="standard_car" route="south_to_west" depart="3104.51"/>
    <vehicle id="veh_200" type="standard_car" route="east_to_south" depart="3510.69"/>
    <vehicle id="veh_201" type="standard_car" route="east_to_north" depart="2019.96"/>
    <vehicle id="veh_202" type="standard_car" route="west_to_north" depart="1614.42"/>
    <vehicle id="veh_203" type="standard_car" route="west_to_east" depart="2110.33"/>
    <vehicle id="veh_204" type="standard_car" route="north_to_south" depart="3244.88"/>
    <vehicle id="veh_205" type="standard_car" route="south_to_north" depart="592.91"/>
    <vehicle id="veh_206" type="standard_car" route="north_to_east" depart="3386.44"/>
    <vehicle id="veh_207" type="standard_car" route="north_to_west" depart="2573.68"/>
    <vehicle id="veh_208" type="standard_car" route="west_to_south" depart="3406.38"/>
    <vehicle id="veh_209" type="standard_car" route="north_to_south" depart="3521.05"/>
    <vehicle id="veh_210" type="standard_car" route="west_to_east" depart="2032.41"/>
    <vehicle id="veh_211" type="standard_car" route="east_to_north" depart="1730.05"/>
    <vehicle id="veh_212" type="standard_car" route="north_to_east" depart="1350.57"/>
    <vehicle id="veh_213" type="standard_car" route="north_to_east" depart="1290.89"/>
    <vehicle id="veh_214" type="standard_car" route="east_to_north" depart="3448.37"/>
    <vehicle id="veh_215" type="standard_car" route="south_to_east" depart="674.15"/>
    <vehicle id="veh_216" type="standard_car" route="east_to_north" depart="777.75"/>
    <vehicle id="veh_217" type="standard_car" route="west_to_north" depart="363.18"/>
    <vehicle id="veh_218" type="standard_car" route="south_to_north" depart="2793.19"/>
    <vehicle id="veh_219" type="standard_car" route="north_to_south" depart="391.99"/>
    <vehicle id="veh_220" type="standard_car" route="east_to_north" depart="3579.17"/>
    <vehicle id="veh_221" type="standard_car" route="east_to_west" depart="3341.41"/>
    <vehicle id="veh_222" type="standard_car" route="west_to_south" depart="1555.08"/>
    <vehicle id="veh_223" type="standard_car" route="west_to_north" depart="1154.52"/>
    <vehicle id="veh_224" type="standard_car" route="north_to_south" depart="2104.04"/>
    <vehicle id="veh_225" type="standard_car" route="west_to_south" depart="3403.99"/>
    <vehicle id="veh_226" type="standard_car" route="north_to_west" depart="2568.12"/>
    <vehicle id="veh_227" type="standard_car" route="east_to_south" depart="2190.87"/>
    <vehicle id="veh_228" type="standard_car" route="north_to_east" depart="1405.49"/>
    <vehicle id="veh_229" type="standard_car" route="east_to_west" depart="1312.10"/>
    <vehicle id="veh_230" type="standard_car" route="west_to_south" depart="1937.31"/>
    <vehicle id="veh_231" type="standard_car" route="west_to_east" depart="252.82"/>
    <vehicle id="veh_232" type="standard_car" route="east_to_south" depart="2810.63"/>
    <vehicle id="veh_233" type="standard_car" route="south_to_north" depart="3426.76"/>
    <vehicle id="veh_234" type="standard_car" route="north_to_east" depart="3089.03"/>
    <vehicle id="veh_235" type="standard_car" route="west_to_south" depart="2886.25"/>
    <vehicle id="veh_236" type="standard_car" route="west_to_south" depart="909.54"/>
    <vehicle id="veh_237" type="standard_car" route="north_to_east" depart="1354.74"/>
    <vehicle id="veh_238" type="standard_car" route="north_to_south" depart="107.22"/>
    <vehicle id="veh_239" type="standard_car" route="west_to_east" depart="253.89"/>
    <vehicle id="veh_240" type="standard_car" route="south_to_north" depart="1120.80"/>
    <vehicle id="veh_241" type="standard_car" route="south_to_east" depart="825.49"/>
    <vehicle id="veh_242" type="standard_car" route="south_to_west" depart="2525.79"/>
    <vehicle id="veh_243" type="standard_car" route="north_to_east" depart="3402.45"/>
    <vehicle id="veh_244" type="standard_car" route="north_to_west" depart="528.34"/>
    <vehicle id="veh_245" type="standard_car" route="east_to_north" depart="2239.71"/>
    <vehicle id="veh_246" type="standard_car" route="south_to_east" depart="3326.11"/>
    <vehicle id="veh_247" type="standard_car" route="north_to_east" depart="58.58"/>
    <vehicle id="veh_248" type="standard_car" route="south_to_east" depart="1693.85"/>
    <vehicle id="veh_249" type="standard_car" route="north_to_south" depart="3432.71"/>
    <vehicle id="veh_250" type="standard_car" route="west_to_south" depart="3134.89"/>
    <vehicle id="veh_251" type="standard_car" route="east_to_north" depart="541.89"/>
    <vehicle id="veh_252" type="standard_car" route="south_to_north" depart="1352.43"/>
    <vehicle id="veh_253" type="standard_car" route="west_to_south" depart="3165.66"/>
    <vehicle id="veh_254" type="standard_car" route="east_to_north" depart="357.98"/>
    <vehicle id="veh_255" type="standard_car" route="south_to_west" depart="16.43"/>
    <vehicle id="veh_256" type="standard_car" route="south_to_west" depart="466.32"/>
    <vehicle id="veh_257" type="standard_car" route="west_to_north" depart="1502.08"/>
    <vehicle id="veh_258" type="standard_car" route="north_to_east" depart="681.64"/>
    <vehicle id="veh_259" type="standard_car" route="west_to_north" depart="1247.97"/>
    <vehicle id="veh_260" type="standard_car" route="east_to_west" depart="2648.61"/>
    <vehicle id="veh_261" type="standard_car" route="north_to_west" depart="2142.78"/>
    <vehicle id="veh_262" type="standard_car" route="west_to_south" depart="392.06"/>
    <vehicle id="veh_263" type="standard_car" route="north_to_south" depart="2132.64"/>
    <vehicle id="veh_264" type="standard_car" route="south_to_north" depart="3351.51"/>
    <vehicle id="veh_265" type="standard_car" route="south_to_north" depart="2609.68"/>
    <vehicle id="veh_266" type="standard_car" route="east_to_west" depart="912.90"/>
    <vehicle id="veh_267" type="standard_car" route="south_to_north" depart="1907.82"/>
    <vehicle id="veh_268" type="standard_car" route="south_to_east" depart="3217.08"/>
    <vehicle id="veh_269" type="standard_car" route="north_to_west" depart="1075.78"/>
    <vehicle id="veh_270" type="standard_car" route="east_to_north" depart="154.33"/>
    <vehicle id="veh_271" type="standard_car" route="north_to_south" depart="3016.52"/>
    <vehicle id="veh_272" type="standard_car" route="north_to_south" depart="2323.82"/>
    <vehicle id="veh_273" type="standard_car" route="west_to_south" depart="2292.46"/>
    <vehicle id="veh_274" type="standard_car" route="south_to_north" depart="2419.44"/>
    <vehicle id="veh_275" type="standard_car" route="north_to_south" depart="288.20"/>
    <vehicle id="veh_276" type="standard_car" route="west_to_south" depart="215.74"/>
    <vehicle id="veh_277" type="standard_car" route="west_to_south" depart="1670.87"/>
    <vehicle id="veh_278" type="standard_car" route="east_to_north" depart="805.33"/>
    <vehicle id="veh_279" type="standard_car" route="south_to_east" depart="2773.96"/>
    <vehicle id="veh_280" type="standard_car" route="west_to_south" depart="1493.97"/>
    <vehicle id="veh_281" type="standard_car" route="south_to_east" depart="801.02"/>
    <vehicle id="veh_282" type="standard_car" route="east_to_north" depart="997.96"/>
    <vehicle id="veh_283" type="standard_car" route="north_to_east" depart="842.81"/>
    <vehicle id="veh_284" type="standard_car" route="north_to_east" depart="2549.24"/>
    <vehicle id="veh_285" type="standard_car" route="east_to_north" depart="1273.71"/>
    <vehicle id="veh_286" type="standard_car" route="north_to_south" depart="3555.32"/>
    <vehicle id="veh_287" type="standard_car" route="north_to_west" depart="2197.53"/>
    <vehicle id="veh_288" type="standard_car" route="south_to_north" depart="799.44"/>
    <vehicle id="veh_289" type="standard_car" route="west_to_east" depart="3167.76"/>
    <vehicle id="veh_290" type="standard_car" route="north_to_south" depart="541.35"/>
    <vehicle id="veh_291" type="standard_car" route="north_to_south" depart="1154.77"/>
    <vehicle id="veh_292" type="standard_car" route="north_to_south" depart="3529.51"/>
    <vehicle id="veh_293" type="standard_car" route="south_to_east" depart="355.78"/>
    <vehicle id="veh_294" type="standard_car" route="west_to_east" depart="1462.19"/>
    <vehicle id="veh_295" type="standard_car" route="south_to_north" depart="3269.46"/>
    <vehicle id="veh_296" type="standard_car" route="north_to_south" depart="1942.63"/>
    <vehicle id="veh_297" type="standard_car" route="south_to_west" depart="146.85"/>
    <vehicle id="veh_298" type="standard_car" route="north_to_west" depart="873.44"/>
    <vehicle id="veh_299" type="standard_car" route="south_to_west" depart="1018.14"/>
    <vehicle id="veh_300" type="standard_car" route="south_to_east" depart="1210.07"/>
    <vehicle id="veh_301" type="standard_car" route="east_to_north" depart="1001.49"/>
    <vehicle id="veh_302" type="standard_car" route="east_to_south" depart="638.47"/>
    <vehicle id="veh_303" type="standard_car" route="east_to_north" depart="1636.98"/>
    <vehicle id="veh_304" type="standard_car" route="north_to_east" depart="3100.54"/>
    <vehicle id="veh_305" type="standard_car" route="north_to_east" depart="1497.57"/>
    <vehicle id="veh_306" type="standard_car" route="west_to_north" depart="1059.91"/>
    <vehicle id="veh_307" type="standard_car" route="south_to_north" depart="571.59"/>
    <vehicle id="veh_308" type="standard_car" route="south_to_north" depart="1785.18"/>
    <vehicle id="veh_309" type="standard_car" route="north_to_south" depart="1372.89"/>
    <vehicle id="veh_310" type="standard_car" route="west_to_south" depart="3202.04"/>
    <vehicle id="veh_311" type="standard_car" route="west_to_east" depart="3564.38"/>
    <vehicle id="veh_312" type="standard_car" route="south_to_east" depart="40.03"/>
    <vehicle id="veh_313" type="standard_car" route="east_to_south" depart="1005.75"/>
    <vehicle id="veh_314" type="standard_car" route="south_to_north" depart="577.14"/>
    <vehicle id="veh_315" type="standard_car" route="east_to_west" depart="2979.58"/>
    <vehicle id="veh_316" type="standard_car" route="west_to_south" depart="2237.70"/>
    <vehicle id="veh_317" type="standard_car" route="north_to_west" depart="1947.37"/>
    <vehicle id="veh_318" type="standard_car" route="south_to_north" depart="246.12"/>
    <vehicle id="veh_319" type="standard_car" route="east_to_south" depart="2979.66"/>
    <vehicle id="veh_320" type="standard_car" route="east_to_north" depart="2316.43"/>
    <vehicle id="veh_321" type="standard_car" route="west_to_south" depart="2551.92"/>
    <vehicle id="veh_322" type="standard_car" route="west_to_east" depart="3237.93"/>
    <vehicle id="veh_323" type="standard_car" route="south_to_west" depart="149.63"/>
    <vehicle id="veh_324" type="standard_car" route="east_to_south" depart="1488.59"/>
    <vehicle id="veh_325" type="standard_car" route="north_to_east" depart="684.37"/>
    <vehicle id="veh_326" type="standard_car" route="east_to_south" depart="101.78"/>
    <vehicle id="veh_327" type="standard_car" route="north_to_east" depart="956.20"/>
    <vehicle id="veh_328" type="standard_car" route="east_to_south" depart="313.08"/>
    <vehicle id="veh_329" type="standard_car" route="west_to_south" depart="3442.82"/>
    <vehicle id="veh_330" type="standard_car" route="west_to_south" depart="1136.29"/>
    <vehicle id="veh_331" type="standard_car" route="west_to_north" depart="2892.90"/>
    <vehicle id="veh_332" type="standard_car" route="south_to_west" depart="3246.73"/>
    <vehicle id="veh_333" type="standard_car" route="east_to_west" depart="75.60"/>
    <vehicle id="veh_334" type="standard_car" route="west_to_north" depart="2157.05"/>
    <vehicle id="veh_335" type="standard_car" route="west_to_south" depart="1691.85"/>
    <vehicle id="veh_336" type="standard_car" route="south_to_west" depart="2172.12"/>
    <vehicle id="veh_337" type="standard_car" route="south_to_west" depart="1318.89"/>