<?xml version="1.0" encoding="UTF-8"?>
<routes>
    <!-- This file will be generated by route_generator.py -->
    <!-- Placeholder route file -->
    <vType id="car" accel="2.6" decel="4.5" sigma="0.5" length="5" minGap="2.5" maxSpeed="13.89" guiShape="passenger"/>
</routes>
