<?xml version="1.0" encoding="UTF-8"?>
<routes>
    <vType id="car" accel="2.6" decel="4.5" sigma="0.5" length="5" minGap="2.5" maxSpeed="13.89" guiShape="passenger"/>

    <route id="north_south" edges="N2TL TL2S"/>
    <route id="north_east" edges="N2TL TL2E"/>
    <route id="north_west" edges="N2TL TL2W"/>
    <route id="south_north" edges="S2TL TL2N"/>
    <route id="south_east" edges="S2TL TL2E"/>
    <route id="south_west" edges="S2TL TL2W"/>
    <route id="east_north" edges="E2TL TL2N"/>
    <route id="east_south" edges="E2TL TL2S"/>
    <route id="east_west" edges="E2TL TL2W"/>
    <route id="west_north" edges="W2TL TL2N"/>
    <route id="west_south" edges="W2TL TL2S"/>
    <route id="west_east" edges="W2TL TL2E"/>

    <vehicle id="veh_0" type="car" route="east_north" depart="8.52"/>
    <vehicle id="veh_1" type="car" route="south_north" depart="12.73"/>
    <vehicle id="veh_2" type="car" route="west_north" depart="20.89"/>
    <vehicle id="veh_3" type="car" route="south_north" depart="38.27"/>
    <vehicle id="veh_4" type="car" route="west_east" depart="51.92"/>
    <vehicle id="veh_5" type="car" route="east_south" depart="59.26"/>
    <vehicle id="veh_6" type="car" route="east_west" depart="74.55"/>
    <vehicle id="veh_7" type="car" route="south_north" depart="75.49"/>
    <vehicle id="veh_8" type="car" route="north_west" depart="93.06"/>
    <vehicle id="veh_9" type="car" route="north_west" depart="95.47"/>
    <vehicle id="veh_10" type="car" route="south_west" depart="98.62"/>
    <vehicle id="veh_11" type="car" route="west_east" depart="135.81"/>
    <vehicle id="veh_12" type="car" route="east_south" depart="205.78"/>
    <vehicle id="veh_13" type="car" route="north_east" depart="210.96"/>
    <vehicle id="veh_14" type="car" route="east_north" depart="214.43"/>
    <vehicle id="veh_15" type="car" route="west_south" depart="245.66"/>
    <vehicle id="veh_16" type="car" route="north_east" depart="256.75"/>
    <vehicle id="veh_17" type="car" route="south_west" depart="257.46"/>
    <vehicle id="veh_18" type="car" route="west_north" depart="270.65"/>
    <vehicle id="veh_19" type="car" route="west_north" depart="279.59"/>
    <vehicle id="veh_20" type="car" route="west_east" depart="281.52"/>
    <vehicle id="veh_21" type="car" route="west_east" depart="289.18"/>
    <vehicle id="veh_22" type="car" route="north_west" depart="310.61"/>
    <vehicle id="veh_23" type="car" route="south_north" depart="313.67"/>
    <vehicle id="veh_24" type="car" route="south_east" depart="326.59"/>
    <vehicle id="veh_25" type="car" route="east_south" depart="362.38"/>
    <vehicle id="veh_26" type="car" route="east_south" depart="366.07"/>
    <vehicle id="veh_27" type="car" route="north_south" depart="374.25"/>
    <vehicle id="veh_28" type="car" route="west_north" depart="376.42"/>
    <vehicle id="veh_29" type="car" route="west_south" depart="397.10"/>
    <vehicle id="veh_30" type="car" route="west_north" depart="404.69"/>
    <vehicle id="veh_31" type="car" route="south_west" depart="452.12"/>
    <vehicle id="veh_32" type="car" route="north_south" depart="480.86"/>
    <vehicle id="veh_33" type="car" route="north_south" depart="501.06"/>
    <vehicle id="veh_34" type="car" route="west_east" depart="507.22"/>
    <vehicle id="veh_35" type="car" route="north_south" depart="525.08"/>
    <vehicle id="veh_36" type="car" route="east_north" depart="526.39"/>
    <vehicle id="veh_37" type="car" route="west_east" depart="549.64"/>
    <vehicle id="veh_38" type="car" route="north_west" depart="553.34"/>
    <vehicle id="veh_39" type="car" route="west_north" depart="568.50"/>
    <vehicle id="veh_40" type="car" route="east_north" depart="570.71"/>
    <vehicle id="veh_41" type="car" route="east_west" depart="586.06"/>
    <vehicle id="veh_42" type="car" route="south_west" depart="598.50"/>
    <vehicle id="veh_43" type="car" route="south_east" depart="609.45"/>
    <vehicle id="veh_44" type="car" route="west_south" depart="612.72"/>
    <vehicle id="veh_45" type="car" route="west_north" depart="639.33"/>
    <vehicle id="veh_46" type="car" route="north_south" depart="639.74"/>
    <vehicle id="veh_47" type="car" route="north_east" depart="641.48"/>
    <vehicle id="veh_48" type="car" route="north_south" depart="652.03"/>
    <vehicle id="veh_49" type="car" route="east_west" depart="661.05"/>
    <vehicle id="veh_50" type="car" route="east_south" depart="683.40"/>
    <vehicle id="veh_51" type="car" route="west_north" depart="684.61"/>
    <vehicle id="veh_52" type="car" route="east_west" depart="689.40"/>
    <vehicle id="veh_53" type="car" route="east_south" depart="709.49"/>
    <vehicle id="veh_54" type="car" route="south_north" depart="713.42"/>
    <vehicle id="veh_55" type="car" route="north_east" depart="728.58"/>
    <vehicle id="veh_56" type="car" route="north_south" depart="731.74"/>
    <vehicle id="veh_57" type="car" route="north_south" depart="731.77"/>
    <vehicle id="veh_58" type="car" route="north_east" depart="774.76"/>
    <vehicle id="veh_59" type="car" route="south_north" depart="803.32"/>
    <vehicle id="veh_60" type="car" route="east_north" depart="807.76"/>
    <vehicle id="veh_61" type="car" route="south_west" depart="823.96"/>
    <vehicle id="veh_62" type="car" route="west_north" depart="827.16"/>
    <vehicle id="veh_63" type="car" route="north_south" depart="838.96"/>
    <vehicle id="veh_64" type="car" route="west_north" depart="867.85"/>
    <vehicle id="veh_65" type="car" route="south_west" depart="897.54"/>
    <vehicle id="veh_66" type="car" route="east_south" depart="904.94"/>
    <vehicle id="veh_67" type="car" route="west_north" depart="935.06"/>
    <vehicle id="veh_68" type="car" route="east_north" depart="946.77"/>
    <vehicle id="veh_69" type="car" route="south_west" depart="968.22"/>
    <vehicle id="veh_70" type="car" route="west_south" depart="1018.24"/>
    <vehicle id="veh_71" type="car" route="east_west" depart="1030.99"/>
    <vehicle id="veh_72" type="car" route="east_south" depart="1044.73"/>
    <vehicle id="veh_73" type="car" route="west_east" depart="1063.57"/>
    <vehicle id="veh_74" type="car" route="south_north" depart="1072.49"/>
    <vehicle id="veh_75" type="car" route="north_west" depart="1075.29"/>
    <vehicle id="veh_76" type="car" route="south_east" depart="1099.68"/>
    <vehicle id="veh_77" type="car" route="north_east" depart="1101.28"/>
    <vehicle id="veh_78" type="car" route="north_east" depart="1102.48"/>
    <vehicle id="veh_79" type="car" route="west_south" depart="1143.08"/>
    <vehicle id="veh_80" type="car" route="north_south" depart="1156.63"/>
    <vehicle id="veh_81" type="car" route="north_east" depart="1168.38"/>
    <vehicle id="veh_82" type="car" route="east_west" depart="1176.63"/>
    <vehicle id="veh_83" type="car" route="west_south" depart="1185.64"/>
    <vehicle id="veh_84" type="car" route="west_south" depart="1191.43"/>
    <vehicle id="veh_85" type="car" route="west_north" depart="1205.34"/>
    <vehicle id="veh_86" type="car" route="east_west" depart="1209.92"/>
    <vehicle id="veh_87" type="car" route="west_east" depart="1227.27"/>
    <vehicle id="veh_88" type="car" route="south_north" depart="1237.68"/>
    <vehicle id="veh_89" type="car" route="north_east" depart="1240.50"/>
    <vehicle id="veh_90" type="car" route="west_north" depart="1244.70"/>
    <vehicle id="veh_91" type="car" route="east_west" depart="1251.26"/>
    <vehicle id="veh_92" type="car" route="west_north" depart="1280.65"/>
    <vehicle id="veh_93" type="car" route="east_south" depart="1281.61"/>
    <vehicle id="veh_94" type="car" route="south_west" depart="1312.36"/>
    <vehicle id="veh_95" type="car" route="east_west" depart="1325.38"/>
    <vehicle id="veh_96" type="car" route="south_east" depart="1356.68"/>
    <vehicle id="veh_97" type="car" route="south_north" depart="1371.47"/>
    <vehicle id="veh_98" type="car" route="south_west" depart="1380.08"/>
    <vehicle id="veh_99" type="car" route="south_north" depart="1385.44"/>
    <vehicle id="veh_100" type="car" route="north_west" depart="1387.07"/>
    <vehicle id="veh_101" type="car" route="north_south" depart="1396.06"/>
    <vehicle id="veh_102" type="car" route="north_west" depart="1409.88"/>
    <vehicle id="veh_103" type="car" route="south_west" depart="1423.19"/>
    <vehicle id="veh_104" type="car" route="north_south" depart="1424.04"/>
    <vehicle id="veh_105" type="car" route="south_north" depart="1450.10"/>
    <vehicle id="veh_106" type="car" route="south_east" depart="1462.48"/>
    <vehicle id="veh_107" type="car" route="west_south" depart="1467.52"/>
    <vehicle id="veh_108" type="car" route="east_north" depart="1475.42"/>
    <vehicle id="veh_109" type="car" route="east_north" depart="1483.65"/>
    <vehicle id="veh_110" type="car" route="south_north" depart="1484.86"/>
    <vehicle id="veh_111" type="car" route="west_north" depart="1500.92"/>
    <vehicle id="veh_112" type="car" route="east_west" depart="1543.14"/>
    <vehicle id="veh_113" type="car" route="north_west" depart="1558.10"/>
    <vehicle id="veh_114" type="car" route="north_east" depart="1593.48"/>
    <vehicle id="veh_115" type="car" route="west_south" depart="1598.47"/>
    <vehicle id="veh_116" type="car" route="east_south" depart="1603.92"/>
    <vehicle id="veh_117" type="car" route="east_north" depart="1616.18"/>
    <vehicle id="veh_118" type="car" route="south_west" depart="1622.30"/>
    <vehicle id="veh_119" type="car" route="east_south" depart="1625.84"/>
    <vehicle id="veh_120" type="car" route="east_north" depart="1627.01"/>
    <vehicle id="veh_121" type="car" route="east_south" depart="1639.83"/>
    <vehicle id="veh_122" type="car" route="south_east" depart="1641.67"/>
    <vehicle id="veh_123" type="car" route="east_west" depart="1644.87"/>
    <vehicle id="veh_124" type="car" route="south_east" depart="1650.04"/>
    <vehicle id="veh_125" type="car" route="east_north" depart="1680.52"/>
    <vehicle id="veh_126" type="car" route="east_north" depart="1697.85"/>
    <vehicle id="veh_127" type="car" route="east_south" depart="1709.22"/>
    <vehicle id="veh_128" type="car" route="north_south" depart="1709.58"/>
    <vehicle id="veh_129" type="car" route="east_west" depart="1724.84"/>
    <vehicle id="veh_130" type="car" route="south_east" depart="1731.35"/>
    <vehicle id="veh_131" type="car" route="south_north" depart="1731.37"/>
    <vehicle id="veh_132" type="car" route="north_west" depart="1736.96"/>
    <vehicle id="veh_133" type="car" route="west_north" depart="1768.73"/>
    <vehicle id="veh_134" type="car" route="west_east" depart="1797.47"/>
    <vehicle id="veh_135" type="car" route="west_south" depart="1823.34"/>
    <vehicle id="veh_136" type="car" route="south_east" depart="1829.23"/>
    <vehicle id="veh_137" type="car" route="south_east" depart="1847.10"/>
    <vehicle id="veh_138" type="car" route="south_north" depart="1847.80"/>
    <vehicle id="veh_139" type="car" route="east_north" depart="1851.91"/>
    <vehicle id="veh_140" type="car" route="south_north" depart="1872.98"/>
    <vehicle id="veh_141" type="car" route="north_west" depart="1892.95"/>
    <vehicle id="veh_142" type="car" route="north_south" depart="1902.37"/>
    <vehicle id="veh_143" type="car" route="south_east" depart="1904.92"/>
    <vehicle id="veh_144" type="car" route="south_west" depart="1919.62"/>
    <vehicle id="veh_145" type="car" route="east_south" depart="1927.00"/>
    <vehicle id="veh_146" type="car" route="north_east" depart="1933.73"/>
    <vehicle id="veh_147" type="car" route="south_north" depart="1953.38"/>
    <vehicle id="veh_148" type="car" route="east_west" depart="1965.45"/>
    <vehicle id="veh_149" type="car" route="east_west" depart="1980.20"/>
    <vehicle id="veh_150" type="car" route="north_west" depart="1983.81"/>
    <vehicle id="veh_151" type="car" route="north_east" depart="2001.64"/>
    <vehicle id="veh_152" type="car" route="north_south" depart="2011.59"/>
    <vehicle id="veh_153" type="car" route="west_east" depart="2018.45"/>
    <vehicle id="veh_154" type="car" route="west_north" depart="2018.82"/>
    <vehicle id="veh_155" type="car" route="north_south" depart="2020.59"/>
    <vehicle id="veh_156" type="car" route="north_west" depart="2021.16"/>
    <vehicle id="veh_157" type="car" route="north_east" depart="2022.23"/>
    <vehicle id="veh_158" type="car" route="east_west" depart="2040.70"/>
    <vehicle id="veh_159" type="car" route="east_south" depart="2043.70"/>
    <vehicle id="veh_160" type="car" route="north_south" depart="2056.26"/>
    <vehicle id="veh_161" type="car" route="east_west" depart="2074.76"/>
    <vehicle id="veh_162" type="car" route="west_south" depart="2078.56"/>
    <vehicle id="veh_163" type="car" route="north_east" depart="2083.12"/>
    <vehicle id="veh_164" type="car" route="west_north" depart="2090.61"/>
    <vehicle id="veh_165" type="car" route="north_west" depart="2091.98"/>
    <vehicle id="veh_166" type="car" route="south_north" depart="2108.49"/>
    <vehicle id="veh_167" type="car" route="west_north" depart="2142.21"/>
    <vehicle id="veh_168" type="car" route="north_west" depart="2149.53"/>
    <vehicle id="veh_169" type="car" route="west_east" depart="2154.45"/>
    <vehicle id="veh_170" type="car" route="south_north" depart="2169.19"/>
    <vehicle id="veh_171" type="car" route="north_west" depart="2173.00"/>
    <vehicle id="veh_172" type="car" route="north_south" depart="2194.86"/>
    <vehicle id="veh_173" type="car" route="east_west" depart="2199.59"/>
    <vehicle id="veh_174" type="car" route="east_north" depart="2208.19"/>
    <vehicle id="veh_175" type="car" route="south_west" depart="2208.94"/>
    <vehicle id="veh_176" type="car" route="east_south" depart="2211.17"/>
    <vehicle id="veh_177" type="car" route="east_south" depart="2216.06"/>
    <vehicle id="veh_178" type="car" route="north_east" depart="2225.33"/>
    <vehicle id="veh_179" type="car" route="south_east" depart="2227.98"/>
    <vehicle id="veh_180" type="car" route="north_east" depart="2251.03"/>
    <vehicle id="veh_181" type="car" route="west_north" depart="2261.83"/>
    <vehicle id="veh_182" type="car" route="south_east" depart="2319.97"/>
    <vehicle id="veh_183" type="car" route="south_east" depart="2327.70"/>
    <vehicle id="veh_184" type="car" route="west_south" depart="2327.86"/>
    <vehicle id="veh_185" type="car" route="west_north" depart="2340.44"/>
    <vehicle id="veh_186" type="car" route="north_west" depart="2342.23"/>
    <vehicle id="veh_187" type="car" route="north_east" depart="2351.10"/>
    <vehicle id="veh_188" type="car" route="north_east" depart="2364.09"/>
    <vehicle id="veh_189" type="car" route="west_south" depart="2377.68"/>
    <vehicle id="veh_190" type="car" route="south_east" depart="2391.26"/>
    <vehicle id="veh_191" type="car" route="east_south" depart="2397.74"/>
    <vehicle id="veh_192" type="car" route="south_west" depart="2414.03"/>
    <vehicle id="veh_193" type="car" route="east_south" depart="2417.64"/>
    <vehicle id="veh_194" type="car" route="west_north" depart="2421.47"/>
    <vehicle id="veh_195" type="car" route="west_south" depart="2425.41"/>
    <vehicle id="veh_196" type="car" route="north_west" depart="2432.45"/>
    <vehicle id="veh_197" type="car" route="west_north" depart="2443.79"/>
    <vehicle id="veh_198" type="car" route="south_east" depart="2461.91"/>
    <vehicle id="veh_199" type="car" route="north_south" depart="2473.06"/>
    <vehicle id="veh_200" type="car" route="east_west" depart="2502.42"/>
    <vehicle id="veh_201" type="car" route="south_east" depart="2505.97"/>
    <vehicle id="veh_202" type="car" route="west_south" depart="2516.74"/>
    <vehicle id="veh_203" type="car" route="east_north" depart="2518.30"/>
    <vehicle id="veh_204" type="car" route="north_south" depart="2535.07"/>
    <vehicle id="veh_205" type="car" route="west_north" depart="2536.11"/>
    <vehicle id="veh_206" type="car" route="south_east" depart="2556.62"/>
    <vehicle id="veh_207" type="car" route="west_south" depart="2560.48"/>
    <vehicle id="veh_208" type="car" route="west_north" depart="2569.63"/>
    <vehicle id="veh_209" type="car" route="south_west" depart="2572.40"/>
    <vehicle id="veh_210" type="car" route="east_south" depart="2594.00"/>
    <vehicle id="veh_211" type="car" route="east_south" depart="2594.72"/>
    <vehicle id="veh_212" type="car" route="north_west" depart="2596.20"/>
    <vehicle id="veh_213" type="car" route="north_west" depart="2610.37"/>
    <vehicle id="veh_214" type="car" route="north_east" depart="2611.69"/>
    <vehicle id="veh_215" type="car" route="west_east" depart="2643.11"/>
    <vehicle id="veh_216" type="car" route="south_east" depart="2654.34"/>
    <vehicle id="veh_217" type="car" route="south_north" depart="2658.87"/>
    <vehicle id="veh_218" type="car" route="north_west" depart="2674.01"/>
    <vehicle id="veh_219" type="car" route="south_north" depart="2674.90"/>
    <vehicle id="veh_220" type="car" route="north_west" depart="2680.56"/>
    <vehicle id="veh_221" type="car" route="north_south" depart="2686.49"/>
    <vehicle id="veh_222" type="car" route="south_west" depart="2690.94"/>
    <vehicle id="veh_223" type="car" route="south_east" depart="2703.85"/>
    <vehicle id="veh_224" type="car" route="south_east" depart="2706.19"/>
    <vehicle id="veh_225" type="car" route="north_south" depart="2707.13"/>
    <vehicle id="veh_226" type="car" route="north_south" depart="2713.82"/>
    <vehicle id="veh_227" type="car" route="north_east" depart="2719.38"/>
    <vehicle id="veh_228" type="car" route="north_east" depart="2729.69"/>
    <vehicle id="veh_229" type="car" route="west_south" depart="2732.36"/>
    <vehicle id="veh_230" type="car" route="east_north" depart="2742.67"/>
    <vehicle id="veh_231" type="car" route="south_west" depart="2751.31"/>
    <vehicle id="veh_232" type="car" route="north_west" depart="2755.74"/>
    <vehicle id="veh_233" type="car" route="north_west" depart="2773.64"/>
    <vehicle id="veh_234" type="car" route="east_west" depart="2793.42"/>
    <vehicle id="veh_235" type="car" route="west_north" depart="2799.69"/>
    <vehicle id="veh_236" type="car" route="west_east" depart="2805.24"/>
    <vehicle id="veh_237" type="car" route="east_west" depart="2810.03"/>
    <vehicle id="veh_238" type="car" route="south_west" depart="2844.30"/>
    <vehicle id="veh_239" type="car" route="south_west" depart="2850.92"/>
    <vehicle id="veh_240" type="car" route="north_west" depart="2861.57"/>
    <vehicle id="veh_241" type="car" route="east_west" depart="2863.04"/>
    <vehicle id="veh_242" type="car" route="south_west" depart="2870.90"/>
    <vehicle id="veh_243" type="car" route="north_west" depart="2878.08"/>
    <vehicle id="veh_244" type="car" route="east_west" depart="2890.90"/>
    <vehicle id="veh_245" type="car" route="north_east" depart="2891.69"/>
    <vehicle id="veh_246" type="car" route="north_east" depart="2892.10"/>
    <vehicle id="veh_247" type="car" route="south_north" depart="2896.80"/>
    <vehicle id="veh_248" type="car" route="west_east" depart="2923.52"/>
    <vehicle id="veh_249" type="car" route="south_west" depart="2943.52"/>
    <vehicle id="veh_250" type="car" route="north_east" depart="2965.06"/>
    <vehicle id="veh_251" type="car" route="south_north" depart="2972.51"/>
    <vehicle id="veh_252" type="car" route="north_west" depart="3031.44"/>
    <vehicle id="veh_253" type="car" route="north_west" depart="3047.12"/>
    <vehicle id="veh_254" type="car" route="west_south" depart="3049.70"/>
    <vehicle id="veh_255" type="car" route="west_east" depart="3049.86"/>
    <vehicle id="veh_256" type="car" route="west_east" depart="3050.03"/>
    <vehicle id="veh_257" type="car" route="north_west" depart="3104.61"/>
    <vehicle id="veh_258" type="car" route="north_west" depart="3129.36"/>
    <vehicle id="veh_259" type="car" route="east_west" depart="3131.55"/>
    <vehicle id="veh_260" type="car" route="east_south" depart="3152.54"/>
    <vehicle id="veh_261" type="car" route="west_south" depart="3175.16"/>
    <vehicle id="veh_262" type="car" route="west_east" depart="3178.04"/>
    <vehicle id="veh_263" type="car" route="north_south" depart="3183.31"/>
    <vehicle id="veh_264" type="car" route="west_south" depart="3193.14"/>
    <vehicle id="veh_265" type="car" route="east_west" depart="3223.87"/>
    <vehicle id="veh_266" type="car" route="east_west" depart="3233.11"/>
    <vehicle id="veh_267" type="car" route="north_south" depart="3255.10"/>
    <vehicle id="veh_268" type="car" route="west_south" depart="3261.42"/>
    <vehicle id="veh_269" type="car" route="south_east" depart="3263.31"/>
    <vehicle id="veh_270" type="car" route="north_south" depart="3275.48"/>
    <vehicle id="veh_271" type="car" route="east_west" depart="3285.89"/>
    <vehicle id="veh_272" type="car" route="west_east" depart="3291.75"/>
    <vehicle id="veh_273" type="car" route="east_north" depart="3308.54"/>
    <vehicle id="veh_274" type="car" route="west_south" depart="3321.11"/>
    <vehicle id="veh_275" type="car" route="south_east" depart="3328.45"/>
    <vehicle id="veh_276" type="car" route="south_east" depart="3329.74"/>
    <vehicle id="veh_277" type="car" route="north_south" depart="3359.68"/>
    <vehicle id="veh_278" type="car" route="south_north" depart="3360.53"/>
    <vehicle id="veh_279" type="car" route="north_south" depart="3372.73"/>
    <vehicle id="veh_280" type="car" route="north_south" depart="3399.09"/>
    <vehicle id="veh_281" type="car" route="north_east" depart="3407.47"/>
    <vehicle id="veh_282" type="car" route="north_east" depart="3419.48"/>
    <vehicle id="veh_283" type="car" route="south_north" depart="3422.00"/>
    <vehicle id="veh_284" type="car" route="east_west" depart="3468.44"/>
    <vehicle id="veh_285" type="car" route="west_south" depart="3479.59"/>
    <vehicle id="veh_286" type="car" route="north_east" depart="3506.17"/>
    <vehicle id="veh_287" type="car" route="east_west" depart="3506.90"/>
    <vehicle id="veh_288" type="car" route="west_east" depart="3507.60"/>
    <vehicle id="veh_289" type="car" route="east_south" depart="3516.59"/>
    <vehicle id="veh_290" type="car" route="east_west" depart="3529.18"/>
    <vehicle id="veh_291" type="car" route="west_north" depart="3533.53"/>
    <vehicle id="veh_292" type="car" route="west_north" depart="3534.52"/>
    <vehicle id="veh_293" type="car" route="east_west" depart="3548.62"/>
    <vehicle id="veh_294" type="car" route="north_west" depart="3550.88"/>
    <vehicle id="veh_295" type="car" route="south_east" depart="3561.63"/>
    <vehicle id="veh_296" type="car" route="west_east" depart="3570.03"/>
    <vehicle id="veh_297" type="car" route="south_west" depart="3570.70"/>
    <vehicle id="veh_298" type="car" route="west_north" depart="3571.91"/>
    <vehicle id="veh_299" type="car" route="west_south" depart="3582.16"/>
</routes>
