<?xml version="1.0" encoding="UTF-8"?>

<!-- generated on 2026-01-27T16:19:05.854197+05:30 by Eclipse SUMO netconvert 1.25.0
-->

<netconvertConfiguration xmlns:xsi="http://www.w3.org/2001/XMLSchema-instance" xsi:noNamespaceSchemaLocation="http://sumo.dlr.de/xsd/netconvertConfiguration.xsd">

    <input>
        <node-files value="E:\github_projects\trafficRL\traffic_rl\sumo\test_plain.nod.xml"/>
        <edge-files value="E:\github_projects\trafficRL\traffic_rl\sumo\test_plain.edg.xml"/>
        <connection-files value="E:\github_projects\trafficRL\traffic_rl\sumo\test_plain.con.xml"/>
        <tllogic-files value="E:\github_projects\trafficRL\traffic_rl\sumo\test_plain.tll.xml"/>
    </input>

    <output>
        <output-file value="E:\github_projects\trafficRL\traffic_rl\sumo\test_output.net.xml"/>
    </output>

    <processing>
        <geometry.min-radius.fix.railways value="false"/>
        <geometry.avoid-overlap value="false"/>
        <geometry.max-grade.fix value="false"/>
        <offset.disable-normalization value="true"/>
        <lefthand value="0"/>
    </processing>

    <junctions>
        <no-turnarounds value="true"/>
        <junctions.corner-detail value="5"/>
        <junctions.limit-turn-speed value="5.50"/>
        <rectangular-lane-cut value="0"/>
    </junctions>

    <pedestrian>
        <walkingareas value="0"/>
    </pedestrian>

</netconvertConfiguration>
